ELEM E N O H C AR HE
END

SPECIES

E
N2 N2(v1) N2(v2) N2(v3) N2(v4) N2(v5) N2(v6) N2(v7) N2(v8)
N2(A3Sigma) N2(B3Pi) N2(W3Delta) N2(Bp3Sigma) N2(ap1Sigma) N2(a1Pi) N2(w1Delta) N2(C3Pi) N2(E3Sigma) N2(app1Sigma) N2+
O2 O2(v1) O2(v2) O2(v3) O2(v4) O2(a1Delta) O2(b1Sigma) O2+
N N(2D) N(2P) 
O O(1D) O(1S)
O3 N2O4 N2O5
H2 H2(v1) H2(v2) H2(v3) H2+
C3H5 CH4+  CH3+	C2H4+  C3H8+
AR HE 

!WESTBROOK MECHANISM DEFINED SPECIES

SPECIES
H2 H
CH4 CH3 CH2 CH CH2O HCO CO2 CO O2 O OH HO2 H2O2 H2O
C2H HCCO C2H2 C2H3 C2H4 C2H5 C2H6 CH2OH CH3O HCCOH H2CCCH
C3H2 CH2(S) CH2CO C2O HCOH 
CH3OH CH2HCO 
C3H6 AC3H5 PC3H5
SC3H5 CH2CHCHO PC3H4 AC3H4 CH3CO  
CH2CHCO CH3CHCO CH3HCO CHOCHO 
IC3H7 NC3H7      
C2H5OH C2H4OH  CH3CHOH  
CH2CHCH2O CH3CH2O HCOOH C3H8 
C2H5O2 C2H2OH C AR      
N NH     
NH2     NH3     NNH     NO      NO2     N2O     HNO     CN      
HCN     H2CN    HCNN    HCNO    HOCN    HNCO    NCO     N2      
HNO2 HONO NO3 HONO2 C2COO C2CQ C2JCQ CCYC2O CCQCOO
CC*OCQ CJCCQ C*CCQ CQCJCQ CQCC*O COOCCQ 
CCCOO CCQC*O CCJCQ CJCQCQ CCOOCQ CYCCCO CH3OOH CH3O2 C2H5OOH 
CCCQ CCCOJ CCCHO CQC*O CH2CH2OOH AC3H5O2 AC3H5O2H 
C6H10 C6H9 C2COJ ACETONE HOC3H6 HOC3H6O2 HOC2H4O2 HOOC2H4O2
HOC3H4O HOC3H4O3 HOCCQCHO HOCCQC CHCHCHO 
CH3NO CH3ONO CH3ONO2 CH3NO2 C3H5NO2 
END

REACTIONS

!*************************************************************************************************************************************
! C. WESTBROOK'S MECHANISM, UNITS: CM3/MOL/S, CAL, K
!*************************************************************************************************************************************
! MARINOV, N. M., PITZ, W.J., WESTBROOK, C.K., HORI, M., AND MATSUNAGA, N. 
! "AN EXPERIMENTAL AND KINETIC CALCULATION OF THE PROMOTION EFFECT OF HYDROCARBONS 
! ON THE NO-NO2 CONVERSION IN A FLOW REACTOR", 
! PROCEEDINGS OF THE COMBUSTION INSTITUTE, VOLUME 27, PP. 389-396, 1998. (UCRL-JC-129372).
! UCRL-WEB-204236
! REVIEW AND RELEASE DATE: MAY 19, 2004.

   OH+H2=H+H2O             2.14E+08  1.52  3449.0 !MARINOV 1995A
   O+OH=O2+H               2.02E+14  -0.4     0.0 !MARINOV 1995A
   O+H2=OH+H               5.06E+04  2.67  6290.0 !MARINOV 1995A
   H+O2(+M)=HO2(+M)        4.52E+13  0.0      0.0 !MARINOV 1995A
   LOW /  1.05E+19  -1.257  0.0 /	          !MARINOV 1995A
   H2O/0.0/ H2/0.0/ N2/0.0/ CH4/10.0/ CO2/3.8/ CO/1.9/
   H+O2(+N2)=HO2(+N2)      4.52E+13  0.0      0.0 !MARINOV 1995A
   LOW / 2.03E+20  -1.59    0.0  / 	          !MARINOV 1995A
   H+O2(+H2)=HO2(+H2)      4.52E+13  0.0      0.0 !MARINOV 1995A
   LOW / 1.52E+19  -1.133   0.0 /        	  !MARINOV 1995A
   H+O2(+H2O)=HO2(+H2O)    4.52E+13  0.0      0.0 !MARINOV 1995A
   LOW / 2.10E+23  -2.437   0.0 /        	  !MARINOV 1995A
   OH+HO2=H2O+O2           2.13E+28 -4.827 3500.0 !HIPPLER 1995
    DUP
   OH+HO2=H2O+O2  	   9.10E+14  0.0  10964.0 !HIPPLER 1995  
    DUP
   H+HO2=OH+OH             1.50E+14  0.0  1000.0  !MARINOV 1995A
   H+HO2=H2+O2             6.63E+13  0.0  2126.0  !TSANG   1986X
   H+HO2=O+H2O        	   3.01E+13  0.0  1721.0  !MARINOV 1995A
   O+HO2=O2+OH         	   3.25E+13  0.0     0.0  !MARINOV 1995A
   OH+OH=O+H2O             3.57E+04  2.4 -2112.0  !MARINOV 1995A
   H+H+M=H2+M              1.00E+18 -1.0     0.0  !MARINOV 1995A
   H2O/0.0/ H2/0.0/	
   H+H+H2=H2+H2            9.20E+16 -0.6     0.0  !MARINOV 1995A
   H+H+H2O=H2+H2O          6.00E+19 -1.25    0.0  !MARINOV 1995A
   H+OH+M=H2O+M            2.21E+22 -2.0     0.0  !MARINOV 1995A  
    H2O/6.4/
   H+O+M=OH+M              4.71E+18 -1.0     0.0  !MARINOV 1995A 
    H2O/6.4/
   O+O+M=O2+M              1.89E+13  0.0 -1788.0  !MARINOV 1995A
   HO2+HO2=H2O2+O2         4.20E+14  0.0 11982.0  !MARINOV 1995A
   DUP
   HO2+HO2=H2O2+O2         1.30E+11  0.0 -1629.0  !MARINOV 1995A
   DUP
   OH+OH(+M)=H2O2(+M)      1.24E+14 -0.37    0.0  !MARINOV 1995A
   LOW /  3.04E+30   -4.63   2049.0 /   	  !MARINOV 1995A
    TROE / 0.470   100.0   2000.0  1.0E+15/
   H2O2+H=HO2+H2           1.98E+06  2.0  2435.0  !MARINOV 1995A
   H2O2+H=OH+H2O           3.07E+13  0.0  4217.0  !MARINOV 1995A
   H2O2+O=OH+HO2           9.55E+06  2.0  3970.0  !MARINOV 1995A
   H2O2+OH=H2O+HO2         2.40E+00 4.042 -2162.0 !MARINOV 1995A
   CH3+CH3(+M)=C2H6(+M)    9.22E+16 -1.174 636.0  !WALTER  1990
   LOW / 1.14E+36 -5.246 1705.0/ 	          !WALTER  1990  
   TROE/ 0.405  1120.0   69.6    1.0E+15/
    H2O/5.0/ H2/2.0/ CO2/3.0/ CO/2.0/
   CH3+H(+M)=CH4(+M)       2.14E+15 -0.4    0.0	  !TSANG 1986 
   LOW/  3.31E+30   -4.0  2108.0 /	          !MARINOV 1996
   TROE / 0.0   1.0E-15   1.0E-15   40.0/
   H2O/5.0/ H2/2.0/ CO2/3.0/ CO/2.0/ 	
   CH4+H=CH3+H2            2.20E+04 3.0   8750.0  !MILLER 1992
   CH4+OH=CH3+H2O     	   4.19E+06 2.0   2547.0  !MARINOV 1995
   CH4+O=CH3+OH      	   6.92E+08 1.56  8485.0  !MARINOV 1995
   CH4+HO2=CH3+H2O2        1.12E+13 0.0   24640.0 !MARINOV 1995
   CH3+HO2=CH3O+OH         7.00E+12 0.0      0.0  !TROE  1993
   CH3+HO2=CH4+O2	   3.00E+12 0.0      0.0  !MARINOV 1995
   CH3+O=CH2O+H    	   8.00E+13 0.0      0.0  !MARINOV 1995
   CH3+O2=CH3O+O 	   1.45E+13 0.0   29209.0 !KLATT 1991
   CH3+O2=CH2O+OH   	   3.51E+11 0.0   14640.0 !MARINOV 1995
   CH3+O2=CH3O2            9.03E+58 -15.0 17023.0 !TSANG 1986 
   CH3O2+O=CH3O+O2         2.60E+13 0.0      0.0  !ZELLNER 1988   
   CH3O2+H=CH3O+OH         9.64E+13 0.0      0.0  !TSANG 1986 
   CH3O2+CH3=CH3O+CH3O     2.40E+13 0.0      0.0  !TSANG 1986
   CH3O2+HO2=CH3OOH+O2     2.29E+11 0.0  -1550.0  !ATKINSON 1992
   CH3OOH=CH3O+OH          6.00E+14 0.0  42300.0  !LIGHTFOOT 1991
   CH3OOH+OH=CH3O2+H2O     3.12E+6  2.0   -298.0  !THIS STUDY
   CH3O+H=CH3+OH           1.00E+13 0.0      0.0  !MARINOV 1998
   CH2OH+H=CH3+OH          1.00E+13 0.0      0.0  !MARINOV 1998
   CH3+OH=CH2(S)+H2O       2.65E+13 0.0   2186.0  !HUMPFER 1994
   CH3+OH=CH2+H2O          3.00E+06 2.0   2500.0  !MARINOV 1996
   CH3+OH=HCOH+H2          5.48E+13 0.0   2981.0  !HUMPFER 1994
   CH3+H=CH2+H2            9.00E+13 0.0   15100.0 !MILLER 1992
   CH3+M=CH+H2+M           6.90E+14 0.0   82469.0 !MARKUS 1992
   CH3+M=CH2+H+M           1.90E+16 0.0   91411.0 !MARKUS 1992
   CH3+OH(+M)=CH3OH(+M)    8.70E+13 0.1       0.0 !FAGERSTROM 1993
   LOW/ 8.84E+41   -7.4   626.0 / 		  !MARINOV 1996 
   TROE /  0.025   1.0E-15   8000.0   3000.0/
   H2O /10.0/ H2/2.0/ CO2/3.0/ CO/2.0/
   CH3OH(+M)=CH2(S)+H2O(+M)  2.837E10 1.0 89871.      !MARINOV 1998
   LOW / 1.78E49 -8.81 99369./
   TROE /0.9 740. 980. 5100./
   H2O/10.0/ H2/2.0/ CO2/3.0/ CO/2.0/
   CH3OH(+M)=HCOH+H2(+M) 4.2E9 1.12 85604.        !MARINOV 1998
   LOW / 5.02E47 -8.402 94823./
   TROE/ 0.9 615. 915. 4615./
   H2O /10.0/ H2/2.0/ CO2/3.0/ CO/2.0/
   CH3OH(+M)=CH2O+H2(+M) 2.03E9 1.0 91443.        !MARINOV 1998
   LOW /9.784E47 -8.4 101761./
   TROE/ 0.9 825. 1125. 5700./
   H2O/10./ H2/2.0/ CO2/3.0/ CO/2.0/
   CH3OH+OH=CH2OH+H2O      2.61E+05  2.182 -1344.0   !TSANG  1987
   CH3OH+OH=CH3O+H2O       2.62E+06  2.056   916.0   !TSANG  1987
   CH3OH+O=CH2OH+OH        3.88E+05  2.5    3080.0   !TSANG  1987
   CH3OH+H=CH2OH+H2        1.70E+07  2.1    4868.0   !TSANG  1987
   CH3OH+H=CH3O+H2         4.24E+06  2.1    4868.0   !TSANG  1987
   CH3OH+HO2=CH2OH+H2O2    9.64E+10  0.0   12578.0   !TSANG  1987
   CH2O+H(+M)=CH3O(+M)     5.40E+11  0.454  2600.0   !GRI-MECH2.11
   LOW/ 1.50E+30 -4.80 5560./
   TROE/ 0.758 94. 1555. 4200./
   H2O/5.0/
   CH2O+H(+M)=CH2OH(+M)    5.40E+11  0.454  3600.0   !GRI-MECH2.11
   LOW / 9.10E+31 -4.82 6530./
   TROE/ 0.7187 103. 1291. 4160./
   H2O/5.0/
   CH3O+CH3=CH2O+CH4       1.20E+13  0.0      0.0   !TSANG  1986
   CH3O+H=CH2O+H2          2.00E+13  0.0      0.0   !MILLER 1992
   CH2OH+H=CH2O+H2         2.00E+13  0.0      0.0   !MILLER 1992
   CH3O+OH=CH2O+H2O        1.00E+13  0.0      0.0   !MILLER 1992
   CH2OH+OH=CH2O+H2O       1.00E+13  0.0      0.0   !MILLER 1992
   CH3O+O=CH2O+OH          1.00E+13  0.0      0.0   !MILLER 1992
   CH2OH+O=CH2O+OH         1.00E+13  0.0      0.0   !MILLER 1992
   CH3O+O2=CH2O+HO2        6.30E+10  0.0   2600.0   !MILLER 1992
   CH3O+CO=CH3+CO2         4.68E+02  3.16  5380.0   !WANTUCK 1987
   CH2OH+O2=CH2O+HO2       1.57E+15  -1.0     0.0   !BAULCH 1992
    DUP
   CH2OH+O2=CH2O+HO2       7.23E+13  0.0   3577.0   !BAULCH 1992
    DUP
   HCOH+OH=HCO+H2O         2.00E+13  0.0      0.0   !MARINOV 1996
   HCOH+H=CH2O+H           2.00E+14  0.0      0.0   !MARINOV 1996
   HCOH+O=CO2+H+H          5.00E+13  0.0      0.0   !MARINOV 1996
   HCOH+O=CO+OH+H          3.00E+13  0.0      0.0   !MARINOV 1996
   HCOH+O2=CO+OH+OH        1.00E+13  0.0      0.0   !MARINOV 1998
   HCOH+O2=CO2+H2O         1.00E+13  0.0      0.0   !MARINOV 1998
   HCOH=CH2O               2.10E+19 -3.07 31700.0   !MARINOV 1998
   CH2+H=CH+H2             1.00E+18  -1.56    0.0   !MILLER 1992
   CH2+OH=CH+H2O           1.13E+07  2.0   3000.0   !MILLER 1992 
   CH2+OH=CH2O+H           2.50E+13  0.0      0.0   !MILLER 1992
   CH2+CO2=CH2O+CO         1.10E+11  0.0   1000.0   !MILLER 1992
   CH2+O=CO+H+H            5.00E+13  0.0      0.0   !MILLER 1992
   CH2+O=CO+H2     	   3.00E+13  0.0      0.0   !MILLER 1992
   CH2+O2=CH2O+O           3.29E+21 -3.3   2868.0   !MARINOV 1996
   CH2+O2=CO2+H+H          3.29E+21 -3.3   2868.0   !MARINOV 1996
   CH2+O2=CO2+H2           1.01E+21 -3.3   1508.0   !MARINOV 1996
   CH2+O2=CO+H2O           7.28E+19 -2.54  1809.0   !MARINOV 1996
   CH2+O2=HCO+OH           1.29E+20 -3.3    284.0   !MARINOV 1996
   CH2+CH3=C2H4+H          4.00E+13  0.0      0.0   ! MILLER 1992
   CH2+CH2=C2H2+H+H        4.00E+13  0.0      0.0   ! MILLER 1992
   CH2+HCCO=C2H3+CO        3.00E+13  0.0      0.0   ! MILLER 1992
   CH2+C2H2=H2CCCH+H       1.20E+13  0.0   6600.0   ! MILLER 1992
   CH2(S)+M=CH2+M          1.00E+13  0.0      0.0   ! MILLER 1992
   H /12.0/ C2H2 /4.0/ H2O/3.0/
   CH2(S)+CH4=CH3+CH3      4.00E+13  0.0      0.0   ! MILLER 1992
   CH2(S)+C2H6=CH3+C2H5    1.20E+14  0.0      0.0   ! MILLER 1992
   CH2(S)+O2=CO+OH+H       7.00E+13  0.0      0.0   ! MILLER 1992
   CH2(S)+H2=CH3+H         7.00E+13  0.0      0.0   ! MILLER 1992
   CH2(S)+C2H2=H2CCCH+H    1.50E+14  0.0      0.0   ! CANOSA-MAS85
   CH2(S)+C2H4=AC3H5+H     1.30E+14  0.0      0.0   ! CANOSA-MAS85
   CH2(S)+O=CO+H+H         3.00E+13  0.0      0.0   ! MILLER 1992
   CH2(S)+OH=CH2O+H        3.00E+13  0.0      0.0   ! MILLER 1992
   CH2(S)+H=CH+H2          3.00E+13  0.0      0.0   ! MILLER 1992
   CH2(S)+CO2=CH2O+CO      3.00E+12  0.0      0.0   ! MILLER 1992
   CH2(S)+CH3=C2H4+H       2.00E+13  0.0      0.0   ! MILLER 1992
   CH2(S)+CH2CO=C2H4+CO    1.60E+14  0.0      0.0   ! MILLER 1992
   CH+O2=HCO+O             3.30E+13  0.0      0.0   ! MILLER 1992
   CH+O=CO+H     	   5.70E+13  0.0      0.0   ! MILLER 1992
   CH+OH=HCO+H             3.00E+13  0.0      0.0   ! MILLER 1992
   CH+CO2=HCO+CO           3.40E+12  0.0    690.0   ! MILLER 1992
   CH+H2O=CH2O+H           1.17E+15  -0.75    0.0   ! MILLER 1992
   CH+CH2O=CH2CO+H         9.46E+13  0.0   -515.0   ! MILLER 1992
   CH+C2H2=C3H2+H          1.00E+14  0.0      0.0   ! MILLER 1992
   CH+CH2=C2H2+H           4.00E+13  0.0      0.0   ! MILLER 1992
   CH+CH3=C2H3+H           3.00E+13  0.0      0.0   ! MILLER 1992
   CH+CH4=C2H4+H           6.00E+13  0.0      0.0   ! MILLER 1992
   CH2O+OH=HCO+H2O         3.43E+09  1.18  -447.0   ! TSANG  1986
   CH2O+H=HCO+H2           2.19E+08  1.77  3000.0   ! MILLER 1992
   CH2O+M=HCO+H+M          3.31E+16  0.0   81000.0  ! MILLER 1992
   CH2O+O=HCO+OH           1.80E+13  0.0   3080.0   ! MILLER 1992
   HCO+O2=HO2+CO           7.58E+12  0.0    410.0   ! TIMONEN 1988
   HCO+M=H+CO+M            1.86E+17  -1.0 17000.0   ! TIMONEN 1987
   H2O/5.0/ H2/1.87/ CO2/3.0/ CO/1.87/ CH4/2.81/
   HCO+OH=H2O+CO           1.00E+14  0.0     0.0    ! MILLER 1992
   HCO+H=CO+H2             1.19E+13  0.25    0.0    ! MILLER 1992
   HCO+O=CO+OH   	   3.00E+13  0.0     0.0    ! MILLER 1992
   HCO+O=CO2+H             3.00E+13  0.0     0.0    ! MILLER 1992
   CO+OH=CO2+H             9.42E+03  2.25 -2351.0   !MARINOV 1996
   CO+O+M=CO2+M            6.17E+14  0.0   3000.0   ! MILLER 1992
   CO+O2=CO2+O             2.53E+12  0.0  47688.0   ! MILLER 1992
   CO+HO2=CO2+OH           5.80E+13  0.0  22934.0   ! MILLER 1992
   C2H6+CH3=C2H5+CH4       5.50E-01  4.0   8300.0   ! MILLER 1992
   C2H6+H=C2H5+H2          5.40E+02  3.5   5210.0   ! MILLER 1992
   C2H6+O=C2H5+OH          3.00E+07  2.0   5115.0   ! MILLER 1992
   C2H6+OH=C2H5+H2O        7.23E+06  2.0    864.0   ! BAULCH 1992
   C2H5+H=C2H4+H2          1.25E+14  0.0   8000.0   ! MARINOV 1995
   C2H5+H=CH3+CH3          3.00E+13  0.0      0.0   ! WARNATZ 1984
   C2H5+H=C2H6             3.00E+13  0.0      0.0   ! MARINOV 1998
   C2H5+OH=C2H4+H2O        4.00E+13  0.0      0.0   ! MARINOV 1995
   C2H5+O=CH3+CH2O         1.00E+14  0.0      0.0   ! HERRON 1988
   C2H5+HO2=C2H6+O2        3.00E+12  0.0      0.0   ! MARINOV 1998
   C2H5+HO2=CH3CH2O+OH     3.00E+13  0.0      0.0   ! TSANG 1986
   C2H5+O2=C2H4+HO2        2.89E+28  -5.4  7585.0   ! THIS STUDY 
   C2H5+O2=C2H5O2          2.22E+52 -13.25 9756.0   ! THIS STUDY
   C2H5+O2=CH3HCO+OH       4.90E+11 -0.48  8357.0   ! THIS STUDY 
   C2H5+O2=CH2CH2OOH       5.18E+42 -10.72 8576.0   ! THIS STUDY
   C2H5O2=CH2CH2OOH        2.96E+55 -14.24 37892.0  ! THIS STUDY
   C2H5O2=C2H4+HO2         7.37E+54 -13.55 41070.0  ! THIS STUDY
   C2H5O2+HO2=C2H5OOH+O2   2.29E+11  0.0   -1550.0  ! THIS STUDY
   C2H5OOH=CH3CH2O+OH      6.00E+14  0.0   42300.0  ! THIS STUDY
   CH2CH2OOH=C2H4+HO2      6.87E+45 -11.09 23227.0  ! THIS STUDY 
   CH2CH2OOH+O2=HOOC2H4O2  1.00E+12  0.0   -1100.0  ! THIS STUDY
   HOOC2H4O2=CQC*O+OH      6.00E+10  0.0   24500.0  ! THIS STUDY 
   CQC*O=CH2O+HCO+OH       6.00E+14  0.0   42300.0  ! THIS STUDY
   C2H4+OH=C2H4OH          1.29E+12  0.0    -817.0  ! ATKINSON 1986
   C2H4OH+O2=HOC2H4O2      1.00E+12  0.0   -1100.0  ! THIS STUDY
   HOC2H4O2=CH2O+CH2O+OH   6.00E+10  0.0   24500.0  ! THIS STUDY
   C2H4+OH=C2H3+H2O        2.02E+13  0.0   5936.0   ! MILLER 1992
   C2H4+O=CH3+HCO   	   1.02E+07  1.88   179.0   ! BAULCH 1994
   C2H4+O=CH2HCO+H         3.39E+06  1.88   179.0   ! BAULCH 1994
   C2H4+CH3=C2H3+CH4       6.62E+00  3.7   9500.0   ! MARINOV 1995
   C2H4+H=C2H3+H2          3.36E-07  6.0   1692.0   ! DAGAUT 1990
   C2H4+H(+M)=C2H5(+M)     1.08E+12  0.454 1822.0   ! FENG  1993
   LOW / 1.112E+34  -5.0    4448.0 /	            ! MARINOV 1996 
   TROE / 1.0   1.0E-15   95.0  200.0 /
   H2O /5.0/ H2/2.0/ CO2/3.0/ CO/2.0/
   C2H4(+M)=C2H2+H2(+M)    1.80E+13  0.0   76000.   ! MARINOV 1997
   LOW / 1.50E+15 0.0  55443. /
   C2H3+H(+M)=C2H4(+M)     6.10E+12  0.27    280.   !GRI-MECH2.11
   LOW/9.80E+29 -3.86 3320./
   TROE/ 0.782 208. 2663. 6095./
   H2O/5.0/
   C2H3+H=C2H2+H2          4.00E+13  0.0      0.0   ! MILLER 1992
   C2H3+O=CH2CO+H          3.00E+13  0.0      0.0   ! MILLER 1992
   C2H3+O2=CH2O+HCO        1.70E+29  -5.312 6500.0  ! MARINOV 1997
   C2H3+O2=CH2HCO+O        5.50E+14  -0.611 5260.0  ! MARINOV 1997
   C2H3+O2=C2H2+HO2        2.12E-06  6.0   9484.0   !CFM/NMM 1996
   C2H3+OH=C2H2+H2O        2.00E+13  0.0      0.0   ! MILLER 1992
   C2H3+C2H=C2H2+C2H2      3.00E+13  0.0      0.0   ! MILLER 1992
   C2H3+CH=CH2+C2H2        5.00E+13  0.0      0.0   ! MILLER 1992
   C2H3+CH3=AC3H5+H        4.73E+02  3.7   5677.0   ! MARINOV 1996 
   C2H3+CH3=C3H6           4.46E+56 -13.0 13865.0   ! MARINOV 1996 
   C2H3+CH3=C2H2+CH4       2.00E+13  0.0      0.0   ! FAHR  1991
   C2H2+OH=C2H+H2O         3.37E+07  2.0  14000.0   ! MILLER 1992
   C2H2+OH=HCCOH+H         5.04E+05  2.3  13500.0   ! MILLER 1992
   C2H2+OH=CH2CO+H         2.18E-04  4.5  -1000.0   ! MILLER 1992
   C2H2+OH=C2H2OH          1.02E+12  0.0    463.0   ! THIS STUDY        
   C2H2+OH=CH3+CO          4.83E-04  4.0  -2000.0   ! MILLER 1992
   HCCOH+H=CH2CO+H         1.00E+13  0.0      0.0   ! MILLER 1992
   C2H2OH+O2=CHOCHO+OH     2.00E+12  0.0      0.0   ! THIS STUDY
   C2H2OH+H=CH2HCO+H       1.00E+14  0.0      0.0   ! THIS STUDY
   C2H2+O=CH2+CO           6.12E+06  2.0   1900.0   ! MARINOV 1996 
   C2H2+O=HCCO+H           1.43E+07  2.0   1900.0   ! MARINOV 1996 
   C2H2+O=C2H+OH           3.16E+15 -0.6   15000.0  ! MILLER 1992
   C2H2+CH3=C2H+CH4        1.81E+11  0.0   17289.0  ! TSANG  1986
   C2H2+O2=HCCO+OH         4.00E+07  1.5   30100.0  ! MARINOV 1997
   C2H2+M=C2H+H+M          4.20E+16  0.0  107000.0  ! MILLER 1992
   C2H2+H (+M)=C2H3(+M)    3.11E+11  0.58   2589.0  ! KNYAZEV 1995
   LOW / 2.25E+40  -7.269   6577.0 /	            ! MARINOV 1996 
   TROE /1.0 1.0E-15  675.0 1.0E+15 /
   H2O /5.0/ H2/2.0/ CO2/3.0/ CO/2.0/
   C2H5OH(+M)=CH3+CH2OH(+M) 5.71E+23 -1.68 94405.0  !MARINOV 1998
   LOW /3.11E+85 -18.84 113095./
   TROE/0.5 550. 825.  6100./
   H2O/5./ H2/2.0/ CO2/3.0/ CO/2.0/ 
   C2H5OH(+M)=C2H5+OH(+M)  2.40E+23 -1.62 99535.0   !MARINOV 1998
   LOW /5.11E+85 -18.80 118768./
   TROE/0.5 650. 800. 1.E15/
   H2O/5./ H2/2.0/ CO2/3.0/ CO/2.0/  
   C2H5OH(+M)=C2H4+H2O(+M)  1.57E+13 0.14  65684.0   !MARINOV 1998
   LOW/6.68E+82 -18.7 85500./
   TROE/6.7 1.E-15 460. 1.E15/
   H2O/5./
   C2H5OH(+M)=CH3HCO+H2(+M) 1.67E+9  1.0  90820.0   !MARINOV 1998
   LOW /2.04E82 -17.94 111674./
   TROE/0.9 900. 1120. 7500./
   H2O/5./ 
   C2H5OH+OH=C2H4OH+H2O     1.74E+11   0.27    600.0 !MARINOV 1998
   C2H5OH+OH=CH3CHOH+H2O    4.64E+11   0.15      0.0 !MARINOV 1998
   C2H5OH+OH=CH3CH2O+H2O    7.46E+11   0.30   1634.0 !MARINOV 1998
   C2H5OH+H=C2H4OH+H2       1.23E+7    1.8    5098.0 !MARINOV 1998
   C2H5OH+H=CH3CHOH+H2      2.58E+7    1.65   2827.0 !MARINOV 1998
   C2H5OH+H=CH3CH2O+H2      1.50E+7    1.60   3038.0 !MARINOV 1998
   C2H5OH+O=C2H4OH+OH       9.41E+7    1.70   5459.0 !MARINOV 1998
   C2H5OH+O=CH3CHOH+OH      1.88E+7    1.85   1824.0 !MARINOV 1998  
   C2H5OH+O=CH3CH2O+OH      1.58E+7    2.00   4448.0 !MARINOV 1998
   C2H5OH+CH3=C2H4OH+CH4    1.33E+2    3.18   9362.0 !MARINOV 1998 
   C2H5OH+CH3=CH3CHOH+CH4   4.44E+2    2.90   7690.0 !MARINOV 1998 
   C2H5OH+CH3=CH3CH2O+CH4   1.34E+2    2.92   7452.0 !MARINOV 1998 
   C2H5OH+HO2=CH3CHOH+H2O2  7.20E+3    2.55  10750.0 !MARINOV 1998 
   C2H5OH+HO2=C2H4OH+H2O2   1.00E+4    2.55  15750.0 !MARINOV 1998 
   C2H5OH+HO2=CH3CH2O+H2O2  2.50E+12   0.0   24000.0 !MARINOV 1998 
   CH3CH2O+M=CH3HCO+H+M     1.16E+35  -5.89  25274.0 !MARINOV 1998
   CH3CH2O+M=CH3+CH2O+M     1.35E+38  -6.96  23800.0 !MARINOV 1998
   CH3CH2O+O2=CH3HCO+HO2    4.00E+10   0.0    1100.0 !HARTMANN 1990 
   CH3CH2O+CO=C2H5+CO2      4.68E+2    3.16   5380.0 !MARINOV 1998 
   CH3CH2O+H=CH3+CH2OH      1.00E+13   0.0       0.0 !MARINOV 1998 
   CH3CH2O+H=CH3HCO+H2      1.00E+13   0.0       0.0 !MARINOV 1998
   CH3CH2O+OH=CH3HCO+H2O    1.00E+13   0.0       0.0 !MARINOV 1998
   CH3CHOH+O2=CH3HCO+HO2    4.82E+14   0.0    5017.0 !MARINOV 1998
   DUP
   CH3CHOH+O2=CH3HCO+HO2    8.43E+15  -1.2       0.0 !MARINOV 1998
   DUP
   CH3CHOH+CH3=IC3H7+OH     2.00E+13   0.0       0.0 !MARINOV 1998
   CH3CHOH+O=CH3HCO+OH      1.00E+14   0.0       0.0 !MARINOV 1998
   CH3CHOH+H=CH3HCO+H2      1.00E+13   0.0       0.0 !MARINOV 1998
   CH3CHOH+H=CH3+CH2OH      1.00E+13   0.0       0.0 !MARINOV 1998
   CH3CHOH+HO2=CH3HCO+OH+OH 4.00E+13   0.0       0.0 !MARINOV 1998
   CH3CHOH+OH=CH3HCO+H2O    5.00E+12   0.0       0.0 !MARINOV 1998
   CH3CHOH+M=CH3HCO+H+M     1.00E+14   0.0   25000.0 !MARINOV 1998
   CH3HCO+OH=CH3CO+H2O      9.24E+6    1.5    -962.0 !TAYLOR 1996
   CH3HCO+OH=CH2HCO+H2O     1.72E+5    2.4     815.0 !TAYLOR 1996
   CH3HCO+OH=CH3+HCOOH      3.00E+15  -1.076     0.0 !MARINOV 1998
   CH3HCO+O=CH3CO+OH        1.77E+18  -1.9    2975.0 !MARINOV 1998
   CH3HCO+O=CH2HCO+OH       3.72E+13  -0.2    3556.0 !MARINOV 1998
   CH3HCO+H=CH3CO+H2        4.66E+13  -0.35   2988.0 !MARINOV 1998
   CH3HCO+H=CH2HCO+H2       1.85E+12   0.40   5359.0 !MARINOV 1998
   CH3HCO+CH3=CH3CO+CH4     3.90E-7    5.8    2200.0 !MARINOV 1998
   CH3HCO+CH3=CH2HCO+CH4    2.45E+1    3.15   5727.0 !MARINOV 1998
   CH3HCO+HO2=CH3CO+H2O2    2.40E+19  -2.2   14030.0 !MARINOV 1998
   CH3HCO+HO2=CH2HCO+H2O2   2.32E+11   0.40  14864.0 !MARINOV 1998
   HCOOH+M=CO+H2O+M         2.09E+14   0.0   40400.0 !SAITO 1984
   HCOOH+M=CO2+H2+M         1.35E+15   0.0   60600.0 !SAITO 1984
   HCOOH+OH=CO2+H2O+H       2.62E+6    2.056   916.0 !MARINOV 1998
   HCOOH+OH=CO+H2O+OH       1.85E+7    1.5    -962.0 !MARINOV 1998
   HCOOH+H=CO2+H2+H         4.24E+6    2.1    4868.0 !MARINOV 1998
   HCOOH+H=CO+H2+OH         6.06E+13  -0.35   2988.0 !MARINOV 1998        
   HCOOH+CH3=CH4+CO+OH      3.90E-7    5.8    2200.0 !MARINOV 1998
   HCOOH+HO2=CO+H2O2+OH     2.40E+19  -2.2   14030.0 !MARINOV 1998
   HCOOH+O=CO+OH+OH         1.77E+18  -1.9    2975.0 !MARINOV 1998
   CH2HCO+H=CH3+HCO         5.00E+13   0.0       0.0 !MARINOV 1998
   CH2HCO+H=CH2CO+H2        2.00E+13   0.0       0.0 !MARINOV 1998 
   CH2HCO+O=CH2O+HCO        1.00E+14   0.0       0.0 !MARINOV 1996
   CH2HCO+OH=CH2CO+H2O      3.00E+13   0.0       0.0 !MARINOV 1996
   CH2HCO+O2=CH2O+CO+OH     3.00E+10   0.0       0.0 !BAULCH  1992
   CH2HCO+CH3=C2H5+CO+H     4.90E+14  -0.50      0.0 !MARINOV 1998
   CH2HCO+HO2=CH2O+HCO+OH   7.00E+12   0.0       0.0 !MARINOV 1998
   CH2HCO+HO2=CH3HCO+O2     3.00E+12   0.0       0.0 !MARINOV 1998
   CH2HCO=CH3+CO            1.17E+43  -9.83  43756.0 !MARINOV 1998
   CH2HCO=CH2CO+H           1.81E+43  -9.61  45868.0 !MARINOV 1998
   CHOCHO(+M)=CH2O+CO(+M)  4.27E+12  0.0   50600.0  ! MARINOV 1995
   LOW /  8.91E+16    0.0    49200.0 /              ! MARINOV 1995
   CHOCHO=CO+CO+H2         4.07E+42 -8.5   69278.0  ! MARINOV 1996
   CHOCHO+OH=HCO+CO+H2O    1.00E+13  0.0       0.0  ! MARINOV 1995
   CHOCHO+O=HCO+CO+OH      7.24E+12  0.0    1970.0  ! MARINOV 1995
   CHOCHO+H=CH2O+HCO       1.00E+12  0.0       0.0  ! MARINOV 1995
   CHOCHO+HO2=HCO+CO+H2O2  1.70E+12  0.0   10700.0  ! MARINOV 1995
   CHOCHO+CH3=HCO+CO+CH4   1.74E+12  0.0    8440.0  ! MARINOV 1995
   CHOCHO+O2=HCO+CO+HO2    1.00E+14  0.0   37000.0  ! MARINOV 1995
   CH3CO(+M)=CH3+CO(+M)    3.00E+12  0.0   16722.0  ! WARNATZ 1984  
   LOW / 1.20E+15    0.0     12518.0 /              ! WARNATZ 1984
   CH2CO+O=CO2+CH2         1.75E+12  0.0    1350.0  ! MARINOV 1995
   CH2CO+H=CH3+CO          2.71E+4   2.75    714.0  ! MARINOV 1996
   CH2CO+H=HCCO+H2         2.00E+14  0.0    8000.0  ! MARINOV 1996 
   CH2CO+O=HCCO+OH         1.00E+13  0.0    8000.0  ! MILLER 1992
   CH2CO+OH=HCCO+H2O       1.00E+13  0.0    2000.0  ! MARINOV 1996
   CH2CO+OH=CH2OH+CO       3.73E+12  0.0   -1013.0  ! BROWN 1989
   CH2CO(+M)=CH2+CO(+M)    3.00E+14  0.0   70980.0  ! MILLER 1992   
   LOW /  3.60E+15    0.0    59270.0 /              ! MILLER 1992
   C2H+H2=C2H2+H  	   4.09E+05  2.39    864.3  ! MILLER 1992
   C2H+O=CH+CO             5.00E+13  0.0       0.0  ! MILLER 1992
   C2H+OH=HCCO+H           2.00E+13  0.        0.0  ! MILLER 1992
   C2H+O2=CO+CO+H          9.04E+12  0.0    -457.0  ! OPANSKY 1993
   HCCO+C2H2=H2CCCH+CO     1.00E+11  0.0    3000.0  ! MILLER 1992
   HCCO+H=CH2(S)+CO        1.00E+14  0.0       0.0  ! MILLER 1992
   HCCO+O=H+CO+CO          8.00E+13  0.0       0.0  ! PEETERS 1995
   HCCO+O=CH+CO2           2.95E+13  0.0    1113.0  ! PEETERS 1995
   HCCO+O2=HCO+CO+O        2.50E+8   1.0       0.0  ! MARINOV 1997
   HCCO+O2=CO2+HCO         2.40E+11  0.0    -854.0  ! MARINOV 1997
   HCCO+CH=C2H2+CO         5.00E+13  0.0       0.0  ! MILLER 1992
   HCCO+HCCO=C2H2+CO+CO    1.00E+13  0.0       0.0  ! MILLER 1992
   HCCO+OH=C2O+H2O         3.00E+13  0.0       0.0  ! MILLER 1992
   C2O+H=CH+CO             1.00E+13  0.0       0.0  ! MILLER 1992
   C2O+O=CO+CO             5.00E+13  0.0       0.0  ! MILLER 1992
   C2O+OH=CO+CO+H          2.00E+13  0.0       0.0  ! MILLER 1992
   C2O+O2=CO+CO+O          2.00E+13  0.0       0.0  ! MILLER 1992
   C3H8(+M)=C2H5+CH3(+M)   7.90E+22 -1.8   88629.0  ! TSANG 1988
   LOW / 7.237E+27 -2.88 67448.0 /                  ! AL-ALAMI 1983
   TROE /1.0 1.0E-15 1500.0 1.0E+15/
   H2O/5.0/ CO2/3.0/ CO/2.0/ H2/2.0/ 
   IC3H7+HO2=C3H8+O2       3.00E+12  0.0       0.0  !MARINOV 1998
   NC3H7+HO2=C3H8+O2       3.00E+12  0.0       0.0  !MARINOV 1998
   C3H8+HO2=NC3H7+H2O2     4.76E+04  2.55  16492.0  ! TSANG 1988
   C3H8+HO2=IC3H7+H2O2     9.64E+03  2.6   13909.0  ! TSANG 1988
   C3H8+OH=NC3H7+H2O       3.16E+07  1.8     934.0  ! COHEN 1991
   C3H8+OH=IC3H7+H2O       7.08E+06  1.9    -159.0  ! COHEN 1991
   C3H8+O=NC3H7+OH         3.73E+06  2.4    5504.0  ! COHEN 1986
   C3H8+O=IC3H7+OH         5.48E+05  2.5    3139.0  ! COHEN 1986
   C3H8+H=IC3H7+H2         1.30E+06  2.4    4471.0  ! TSANG 1988
   C3H8+H=NC3H7+H2         1.33E+06  2.54   6756.0  ! TSANG 1988
   C3H8+CH3=NC3H7+CH4      9.04E-01  3.65   7153.0  ! TSANG 1988
   C3H8+CH3=IC3H7+CH4      1.51E+00  3.46   5480.0  ! TSANG 1988
   C3H8+C2H3=IC3H7+C2H4    1.00E+03  3.1    8830.0  ! TSANG 1988
   C3H8+C2H3=NC3H7+C2H4    6.00E+02  3.3   10500.0  ! TSANG 1988
   C3H8+C2H5=IC3H7+C2H6    1.51E+00  3.46   7470.0  ! TSANG 1988
   C3H8+C2H5=NC3H7+C2H6    9.03E-01  3.65   9140.0  ! TSANG 1988
   C3H8+AC3H5=C3H6+NC3H7   2.35E+02  3.3   19842.0  ! TSANG 1988
   C3H8+AC3H5=C3H6+IC3H7   7.83E+01  3.3   18169.0  ! TSANG 1988
   NC3H7(+M)=C2H4+CH3(+M)  1.23E+13  -0.1  30202.0  ! BENCSURA 1992
   LOW / 5.485E+49  -10.0  35766.0 /                ! BENCSURA 1992
   TROE / 2.17   1.0E-15   251.0   1185.0 /
   H2O /5.0/ H2/2.0/ CO2/3.0/ CO/2.0/
   C3H6+H(+M)=IC3H7(+M)   5.70E+09   1.16    874.0  ! SEAKINS 1993
   LOW / 1.64E+54   -11.1   9364.0 /	            ! MARINOV 1996
   TROE / 1.0   1.0E-15   260.0   3000.0 /
   H2O /5.0/ H2/2.0/ CO2/3.0/ CO/2.0/
   IC3H7+O2=C2COO          1.75E+58 -14.89  12608.0 !THIS STUDY
   IC3H7+O2=C2JCQ          7.06E+27 -5.91    4802.0 !THIS STUDY
   IC3H7+O2=C3H6+HO2       1.88E+20 -2.69    7109.0 !THIS STUDY
   IC3H7+O2=CCYC2O+OH      4.54E+4   1.55    5000.0 !THIS STUDY
   C2COO=C2JCQ             6.18E+61 -16.03  43008.0 !THIS STUDY
   C2COO=C3H6+HO2          1.51E+72 -18.69  51699.0 !THIS STUDY
   C2COO=CCYC2O+OH         1.95E+57 -14.99  49595.0 !THIS STUDY
   C2COO+HO2=C2CQ+O2       2.29E+11   0.0   -1550.0 !THIS STUDY
   C2CQ=C2COJ+OH           6.00E+14   0.0   42300.0 !THIS STUDY
   C2COJ=ACETONE+H         2.00E+14   0.0   21500.0 !BATT 1979
   C2COJ=CH3+CH3HCO        4.00E+14   0.0   17200.0 !BATT 1979
   C2COJ+O2=ACETONE+HO2    4.90E+10   0.0    1590.0 !HEICKLEN 1988
   C2COJ+CO=IC3H7+CO2      4.68E+2    3.16   5380.0 !THIS STUDY
   C2JCQ=CH2HCO+CH3+OH     8.19E+7    0.46  29230.0 !THIS STUDY          
   C2JCQ+O2=CCQCOO         1.08E+31  -6.04   5019.0 !THIS STUDY
   C2JCQ+O2=CC*OCQ+OH      1.15E+27  -4.61  10312.0 !THIS STUDY
   C2JCQ+O2=CJCQCQ         6.98E+30  -6.14  11470.0 !THIS STUDY
   C2JCQ+O2=C*CCQ+HO2      1.41E+42  -9.22  20724.0 !THIS STUDY
   CCQCOO=CC*OCQ+OH        2.46E+23  -3.95  24702.0 !THIS STUDY
   CCQCOO=CJCQCQ           4.72E+25  -4.89  26209.0 !THIS STUDY
   CJCQCQ=CC*OCQ+OH        1.17E+24  -4.71  21921.0 !THIS STUDY
   CJCQCQ=C*CCQ+HO2        3.53E+20  -2.8   18874.0 !THIS STUDY
   CC*OCQ=CH3CO+CH2O+OH    6.00E+14   0.0   42300.0 !THIS STUDY
   ACETONE+OH=CH2CO+CH3+H2O 7.23E+6   2.0     864.0 !THIS STUDY
   ACETONE+O=CH2CO+CH3+OH   3.00E+7   2.0    5115.0 !THIS STUDY
   ACETONE+H=CH2CO+CH3+H2   5.40E+2   3.5    5210.0 !THIS STUDY
   NC3H7+O2=CCCOO          8.57E+46  -10.79 11555.0 !THIS STUDY
   NC3H7+O2=CCCHO+OH       2.04E+16  -1.29  18186.0 !THIS STUDY
   NC3H7+O2=CCJCQ          1.45E+36  -7.61  13874.0 !THIS STUDY
   NC3H7+O2=C3H6+HO2       3.83E+26  -4.44   7724.0 !THIS STUDY
   NC3H7+O2=CJCCQ          3.47E+45  -10.05 19704.0 !THIS STUDY
   CCCOO=C3H6+HO2          1.88E+61  -14.94 49716.0 !THIS STUDY
   CCCOO=CJCCQ             4.18E+34  -7.33  31801.0 !THIS STUDY
   CCCOO=CCJCQ             1.61E+42  -9.75  35783.0 !THIS STUDY
   CCJCQ=C3H6+HO2          2.19E+30  -6.11  18849.0 !THIS STUDY
   CCJCQ=CCYC2O+OH         1.01E+20  -3.36  20038.0 !THIS STUDY
   CJCCQ=C3H6+HO2          1.22E+57  -13.84 43391.0 !THIS STUDY
   CJCCQ=CYCCCO+OH         2.23E+14  -1.26  18153.0 !THIS STUDY
   CCJCQ+O2=CCOOCQ         1.00E+36  -7.67   6314.0 !THIS STUDY
   CCJCQ+O2=CJCQCQ         5.00E+34  -7.22  13951.0 !THIS STUDY
   CCJCQ+O2=C*CCQ+HO2      8.54E+43  -9.53  22551.0 !THIS STUDY
   CCJCQ+O2=CCQC*O+OH      6.13E+28  -5.05  11272.0 !THIS STUDY
   CCQC*O=CH3HCO+HCO+OH    6.00E+14   0.0   42300.0 !THIS STUDY
   CQCC*O=CH2HCO+CH2O+OH   6.00E+14   0.0   42300.0 !THIS STUDY
   CCOOCQ=CJCQCQ           3.21E+37  -8.25  34660.0 !THIS STUDY
   CCOOCQ=CCQC*O+OH        1.21E+30  -5.85  28978.0 !THIS STUDY
   CJCQCQ=CCQC*O+OH        1.41E+33  -7.14  28454.0 !THIS STUDY
   C*CCQ=CH2CHCH2O+OH      6.00E+14   0.0   42300.0 !THIS STUDY
   CJCCQ+O2=COOCCQ         6.92E+28  -5.32   4441.0 !THIS STUDY
   CJCCQ+O2=CQCC*O+OH      1.46E+29  -5.5   10127.0 !THIS STUDY
   CJCCQ+O2=CQCJCQ         4.81E+32  -6.71  12303.0 !THIS STUDY
   CJCCQ+O2=C*CCQ+HO2      1.76E+41  -8.76  20150.0 !THIS STUDY
   COOCCQ=CQCC*O+OH        1.81E+18  -2.68  20340.0 !THIS STUDY
   COOCCQ=CQCJCQ           4.08E+30  -6.24  30612.0 !THIS STUDY
   COOCCQ=C*CCQ+HO2        1.06E+38  -7.99  40074.0 !THIS STUDY
   CQCJCQ=CQCC*O+OH        2.37E+30  -6.77  27650.0 !THIS STUDY
   CQCJCQ=C*CCQ+HO2        1.44E+24  -4.03  19130.0 !THIS STUDY
   CCCOO+HO2=CCCQ+O2       2.29E+11   0.00  -1550.0 !THIS STUDY
   CCCQ=CCCOJ+OH           6.00E+14   0.0   42300.0 !THIS STUDY
   CCCOJ+O2=CCCHO+HO2      1.95E+11   0.0    1980.0 !THIS STUDY 
   CCCOJ+CO=NC3H7+CO2      4.68E+2    3.16   5380.0 !THIS STUDY
   CCCOJ+M=C2H5+CH2O+M     1.35E+38  -6.96  23800.0 !THIS STUDY