ELEM E N O H C AR HE
END

SPECIES

E
N2 N2(v1) N2(v2) N2(v3) N2(v4) N2(v5) N2(v6) N2(v7) N2(v8)
N2(A3Sigma) N2(B3Pi) N2(W3Delta) N2(Bp3Sigma) N2(ap1Sigma) N2(a1Pi) N2(w1Delta) N2(C3Pi) N2(E3Sigma) N2(app1Sigma) N2+
O2 O2(v1) O2(v2) O2(v3) O2(v4) O2(a1Delta) O2(b1Sigma) O2+
N N(2D) N(2P) 
O O(1D) O(1S)
NO      NO2     N2O    NO3    NH 
O3 N2O4 N2O5
H2 H2(v1) H2(v2) H2(v3) H2+
C3H5 CH4+  CH3+	C2H4+  C3H8+
AR HE 

!WESTBROOK METHANE - N-BUTANE MECHANISM DEFINED SPECIES

H2 H
CH4 CH3 CH2 CH CH2O HCO CO2 CO O2 O OH HO2 H2O2 H2O
C2H HCCO C2H2 C2H3 C2H4 C2H5 C2H6 CH2OH CH3O HCCOH H2CCCH
C3H2 CH2(S) CH2CO C4H2 C5H2 C5H3 C6H2 C2 C2O C HCOH 
CH2CHCCH HCCHCCH H2CCCCH C6H5 C6H6 C6H5O
CH2CHCHCH CH2CHCCH2 
H2C4O CH2CHCHCH2 CH3OH CH2HCO 
C-C5H5 C-C5H5O C-C5H6 C6H5OH C10H8 C-C5H4OH C-C5H4O  
C4H10 PC4H9 SC4H9 C4H8-1 C4H8-2 C4H7 
C3H6 AC3H5 PC3H5
SC3H5 CH2CHCHO PC3H4 AC3H4 CH3CO C6H5CH2 C6H5CH3 
CH2CHCO CH3CHCO CH3HCO CHOCHO 
C3H8 IC3H7 NC3H7 CH3CHCCH2  CH3CCCH2  
C6H5C2H5 C10H10 C10H9 C10H7
C6H4C2H3 C6H4C2H C6H5C2H3 C6H5C2H C10H7O 
C6H5CHO C6H5CO HOC6H4CH3 C6H5CH2OH OC6H4O
OC6H4CH3 C10H7CH2 C10H7CH3
CH3C6H4CH3 INDENE INDENYL ACENPHTHLN PHNTHRN
CH3CHCCH CH3CH2CCH CH3C6H4CH2
PHNTHRYL-1 PHNTHRYL-9 FLRNTHN 
CH3C6H4C2H3 CH3C6H4C2H5  
C-2*4C6H6O C-C5H7 L-C5H8 L-C5H7  
C10H7C2H5 C10H7C2H3 C10H7OH C6H5CCO   
C6H5CHCH C6H5CCH2 C10H7CCH2 C10H7CCH C10H6CCH 
ANTHRACN CH3INDENE CH3INDENYL CH3PHNTHRN PYRENE   
FLUORYL FLUORENE H2CCCCH2 CHCHCHO HCCCHO HCCCO 
HC4-P(DEF)PTHN HC4-P(DEF)PTHYL PHNTHROXY-1 PHNTHROXY-9 
BZ(A)NDENE BZ(A)NDNYL PHNTHROL-1 PHNTHROL-9 BIPHENYL BZ(A)PHNTHRN 
BZ(GHI)FLN FULVENE CH3CY24PD CH3CY24PD1 CH3DCY24PD CYC6H7 
FULVENYL AR N2    

!WESTBROOK METHANE - N-BUTANE / NOX MECHANISM DEFINED SPECIES

N NH     
NH2     NH3     NNH     NO      NO2     N2O     HNO     CN      
HCN     H2CN    HCNN    HCNO    HOCN    HNCO    NCO     N2      
HNO2 HONO NO3 HONO2
C2COO CCCOO CH3O2 
CCCHO AC3H5O2 
CCCOJ C2COJ ACETONE HOC3H6O2 HOC2H4O2
HOC3H4O3 
CH3NO CH3ONO CH3ONO2 CH3NO2 C3H5NO2
C6H9 C2H5O2 CH3CH2O CH2CHCH2O 
END

REACTIONS

!*************************************************************************************************************************************
! C. WESTBROOK'S MECHANISM, UNITS: CM3/MOL/S, CAL, K
!*************************************************************************************************************************************
! REFERENCE:
! MARINOV, N. M., PITZ, W. J., WESTBROOK, C. K., VINCITORE, A. M., 
! CASTALDI, M. J., SENKAN, S. M. "AROMATIC AND POLYCYCLIC AROMATIC 
! HYDROCARBON FORMATION IN A LAMINAR PREMIXED N-BUTANE FLAME" 
! COMBUSTION AND FLAME 114 192-213 (1998).
! UCRL-WEB-204236
! REVIEW AND RELEASE DATE: MAY 19, 2004.
!
! DATE: TUE, 19 JAN 1999 11:38:35 -0800 (PST)
! FROM: "NICK M. MARINOV" <MARINOV1@LLNL.GOV>

   OH+H2=H+H2O             2.14E+08  1.52  3449.0 !MARINOV 1995A
   O+OH=O2+H               2.02E+14  -0.4     0.0 !MARINOV 1995A
   O+H2=OH+H               5.06E+04  2.67  6290.0 !MARINOV 1995A
   H+O2(+M)=HO2(+M)        4.52E+13  0.0      0.0 !MARINOV 1995A
   LOW /  1.05E+19  -1.257  0.0 /	          !MARINOV 1995A
!   H2O/0.0/ H2/0.0/ CH4/10.0/ CO2/3.8/ CO/1.9/
   H2O/0.0/ H2/0.0/ N2/0.0/ CH4/10.0/ CO2/3.8/ CO/1.9/
   H+O2(+N2)=HO2(+N2)      4.52E+13  0.0      0.0 !MARINOV 1995A
   LOW / 2.03E+20  -1.59    0.0  / 	          !MARINOV 1995A
   H+O2(+H2)=HO2(+H2)      4.52E+13  0.0      0.0 !MARINOV 1995A
   LOW / 1.52E+19  -1.133   0.0 /        	  !MARINOV 1995A
   H+O2(+H2O)=HO2(+H2O)    4.52E+13  0.0      0.0 !MARINOV 1995A
   LOW / 2.10E+23  -2.437   0.0 /        	  !MARINOV 1995A
   OH+HO2=H2O+O2           2.13E+28 -4.827 3500.0 !HIPPLER 1995
    DUP
   OH+HO2=H2O+O2  	   9.10E+14  0.0  10964.0 !HIPPLER 1995  
    DUP
   H+HO2=OH+OH             1.50E+14  0.0  1000.0  !MARINOV 1995A
   H+HO2=H2+O2             8.45E+11  0.65 1241.0  !MARINOV 1995A
   H+HO2=O+H2O        	   3.01E+13  0.0  1721.0  !MARINOV 1995A
   O+HO2=O2+OH         	   3.25E+13  0.0     0.0  !MARINOV 1995A
   OH+OH=O+H2O             3.57E+04  2.4 -2112.0  !MARINOV 1995A
   H+H+M=H2+M              1.00E+18 -1.0     0.0  !MARINOV 1995A
   H2O/0.0/ H2/0.0/	
   H+H+H2=H2+H2            9.20E+16 -0.6     0.0  !MARINOV 1995A
   H+H+H2O=H2+H2O          6.00E+19 -1.25    0.0  !MARINOV 1995A
   H+OH+M=H2O+M            2.21E+22 -2.0     0.0  !MARINOV 1995A  
    H2O/6.4/
   H+O+M=OH+M              4.71E+18 -1.0     0.0  !MARINOV 1995A 
    H2O/6.4/
   O+O+M=O2+M              1.89E+13  0.0 -1788.0  !MARINOV 1995A
   HO2+HO2=H2O2+O2         4.20E+14  0.0 11982.0  !MARINOV 1995A
   DUP
   HO2+HO2=H2O2+O2         1.30E+11  0.0 -1629.0  !MARINOV 1995A
   DUP
   OH+OH(+M)=H2O2(+M)      1.24E+14 -0.37    0.0  !MARINOV 1995A
   LOW /  3.04E+30   -4.63   2049.0 /   	  !MARINOV 1995A
    TROE / 0.470   100.0   2000.0  1.0E+15/
   H2O2+H=HO2+H2           1.98E+06  2.0  2435.0  !MARINOV 1995A
   H2O2+H=OH+H2O           3.07E+13  0.0  4217.0  !MARINOV 1995A
   H2O2+O=OH+HO2           9.55E+06  2.0  3970.0  !MARINOV 1995A
   H2O2+OH=H2O+HO2         2.40E+00 4.042 -2162.0 !MARINOV 1995A
   CH3+CH3(+M)=C2H6(+M)    9.22E+16 -1.174 636.0  !WALTER  1990
   LOW / 1.14E+36 -5.246 1705.0/ 	          !WALTER  1990  
   TROE/ 0.405  1120.0   69.6    1.0E+15/
    H2O/5.0/ H2/2.0/ CO2/3.0/ CO/2.0/
   CH3+H(+M)=CH4(+M)       2.14E+15 -0.4    0.0	  !TSANG 1986 
   LOW/  3.31E+30   -4.0  2108.0 /	          ! (A)
   TROE / 0.0   1.0E-15   1.0E-15   40.0/
   H2O/5.0/ H2/2.0/ CO2/3.0/ CO/2.0/ 	
   CH4+H=CH3+H2            2.20E+04 3.0   8750.0  !MILLER 1992
   CH4+OH=CH3+H2O     	   4.19E+06 2.0   2547.0  !MARINOV 1995
   CH4+O=CH3+OH      	   6.92E+08 1.56  8485.0  !MARINOV 1995
   CH4+HO2=CH3+H2O2        1.12E+13 0.0   24640.0 !MARINOV 1995
   CH3+HO2=CH3O+OH         7.00E+12 0.0      0.0  !TROE  1993
   CH3+HO2=CH4+O2	   3.00E+12 0.0      0.0  !MARINOV 1995
   CH3+O=CH2O+H    	   8.00E+13 0.0      0.0  !MARINOV 1995
   CH3+O2=CH3O+O 	   1.45E+13 0.0   29209.0 !KLATT 1991
   CH3+O2=CH2O+OH   	   2.51E+11 0.0   14640.0 !MARINOV 1995
   CH3O+H=CH3+OH           1.00E+14 0.0      0.0  !MILLER 1992
   CH3+OH=CH2(S)+H2O       2.65E+13 0.0   2186.0  !HUMPFER 1994
   CH3+OH=CH2+H2O          3.00E+06 2.0   2500.0  !MARINOV 1996
   CH3+OH=HCOH+H2          5.48E+13 0.0   2981.0  !HUMPFER 1994
   CH3+OH=CH2O+H2          2.25E+13 0.0   4300.0  ! (B)
   CH3+H=CH2+H2            9.00E+13 0.0   15100.0 !MILLER 1992
   CH3+M=CH+H2+M           6.90E+14 0.0   82469.0 !MARKUS 1992
   CH3+M=CH2+H+M           1.90E+16 0.0   91411.0 !MARKUS 1992
   CH3+OH(+M)=CH3OH(+M)    5.65E+13 0.1      0.0  !FAGERSTROM 1993
   LOW/ 5.75E+41   -7.4   626.0 / 		  ! (C) 
   TROE /  0.025   1.0E-15   8000.0   3000.0/
   H2O /16.0/  H2/2.0/ CO2/3.0/ CO/2.0/
   CH3OH(+M)=HCOH+H2(+M)   4.15E+16 -0.15 92285.0 ! (D)
   LOW /  4.23E+44   -7.65     92911.0 /
   TROE / 0.025  1.0E-15   8000.0   3000.0/
   H2O/16.0/ H2/2.0/ CO2/3.0/ CO/2.0/
   CH3OH+OH=CH2OH+H2O      2.61E+05 2.182 -1344.0   !TSANG  1987
   CH3OH+OH=CH3O+H2O       2.62E+06 2.056   916.0   !TSANG  1987
   CH3OH+O=CH2OH+OH        3.88E+05 2.5    3080.0   !TSANG  1987
   CH3OH+H=CH2OH+H2        1.70E+07 2.1    4868.0   !TSANG  1987
   CH3OH+H=CH3O+H2         4.24E+06 2.1    4868.0   !TSANG  1987
   CH3OH+HO2=CH2OH+H2O2    9.64E+10 0.0    12578.0  !TSANG  1987
   CH3O+M=CH2O+H+M         5.45E+13 0.0    13497.0  !CHOUDHURY1990
   CH2OH+M=CH2O+H+M        1.00E+14 0.0    25000.0  !MILLER 1992
   CH3O+H=CH2O+H2          2.00E+13 0.0       0.0   !MILLER 1992
   CH2OH+H=CH2O+H2         2.00E+13 0.0       0.0   !MILLER 1992
   CH3O+OH=CH2O+H2O        1.00E+13 0.0       0.0   !MILLER 1992
   CH2OH+OH=CH2O+H2O       1.00E+13 0.0       0.0   !MILLER 1992
   CH3O+O=CH2O+OH          1.00E+13 0.0       0.0   !MILLER 1992
   CH2OH+O=CH2O+OH         1.00E+13 0.0       0.0   !MILLER 1992
   CH3O+O2=CH2O+HO2        6.30E+10 0.0    2600.0   !MILLER 1992
   CH2OH+O2=CH2O+HO2       1.57E+15 -1.0      0.0   !BAULCH 1992
    DUP
   CH2OH+O2=CH2O+HO2       7.23E+13  0.0   3577.0   !BAULCH 1992
    DUP
   HCOH+OH=HCO+H2O         2.00E+13  0.0      0.0   !MARINOV 1996
   HCOH+H=CH2O+H           2.00E+14  0.0      0.0   !MARINOV 1996
   HCOH+O=CO2+H+H          5.00E+13  0.0      0.0   !MARINOV 1996
   HCOH+O=CO+OH+H          3.00E+13  0.0      0.0   !MARINOV 1996
   HCOH+O2=CO2+H+OH        5.00E+12  0.0      0.0   ! (E)
   HCOH+O2=CO2+H2O         3.00E+13  0.0      0.0   ! (E)
   CH2+H=CH+H2             1.00E+18  -1.56    0.0   !MILLER 1992
   CH2+OH=CH+H2O           1.13E+07  2.0   3000.0   !MILLER 1992 
   CH2+OH=CH2O+H           2.50E+13  0.0      0.0   !MILLER 1992
   CH2+CO2=CH2O+CO         1.10E+11  0.0   1000.0   !MILLER 1992
   CH2+O=CO+H+H            5.00E+13  0.0      0.0   !MILLER 1992
   CH2+O=CO+H2     	   3.00E+13  0.0      0.0   !MILLER 1992
   CH2+O2=CH2O+O           3.29E+21 -3.3   2868.0   ! (F)
   CH2+O2=CO2+H+H          3.29E+21 -3.3   2868.0   ! (F)
   CH2+O2=CO2+H2           1.01E+21 -3.3   1508.0   ! (F)
   CH2+O2=CO+H2O           7.28E+19 -2.54  1809.0   ! (F)
   CH2+O2=HCO+OH           1.29E+20 -3.3    284.0   ! (F)
   CH2+CH3=C2H4+H          4.00E+13  0.0      0.0   ! MILLER 1992
   CH2+CH2=C2H2+H+H        4.00E+13  0.0      0.0   ! MILLER 1992
   CH2+HCCO=C2H3+CO        3.00E+13  0.0      0.0   ! MILLER 1992
   CH2+C2H2=H2CCCH+H       1.20E+13  0.0   6600.0   ! MILLER 1992
   CH2(S)+M=CH2+M          1.00E+13  0.0      0.0   ! MILLER 1992
   H /12.0/ C2H2 /4.0/ H2O/3.0/
   CH2(S)+CH4=CH3+CH3      4.00E+13  0.0      0.0   ! MILLER 1992
   CH2(S)+C2H6=CH3+C2H5    1.20E+14  0.0      0.0   ! MILLER 1992
   CH2(S)+O2=CO+OH+H       7.00E+13  0.0      0.0   ! MILLER 1992
   CH2(S)+H2=CH3+H         7.00E+13  0.0      0.0   ! MILLER 1992
   CH2(S)+C2H2=H2CCCH+H    1.50E+14  0.0      0.0   ! CANOSA-MAS85
   CH2(S)+C2H4=AC3H5+H     1.30E+14  0.0      0.0   ! CANOSA-MAS85
   CH2(S)+O=CO+H+H         3.00E+13  0.0      0.0   ! MILLER 1992
   CH2(S)+OH=CH2O+H        3.00E+13  0.0      0.0   ! MILLER 1992
   CH2(S)+H=CH+H2          3.00E+13  0.0      0.0   ! MILLER 1992
   CH2(S)+CO2=CH2O+CO      3.00E+12  0.0      0.0   ! MILLER 1992
   CH2(S)+CH3=C2H4+H       2.00E+13  0.0      0.0   ! MILLER 1992
   CH2(S)+CH2CO=C2H4+CO    1.60E+14  0.0      0.0   ! MILLER 1992
   CH+O2=HCO+O             3.30E+13  0.0      0.0   ! MILLER 1992
   CH+O=CO+H     	   5.70E+13  0.0      0.0   ! MILLER 1992
   CH+OH=HCO+H             3.00E+13  0.0      0.0   ! MILLER 1992
   CH+OH=C+H2O             4.00E+07  2.0   3000.0   ! MILLER 1992
   CH+CO2=HCO+CO           3.40E+12  0.0    690.0   ! MILLER 1992
   CH+H=C+H2               1.50E+14  0.0      0.0   ! MILLER 1992
   CH+H2O=CH2O+H           1.17E+15  -0.75    0.0   ! MILLER 1992
   CH+CH2O=CH2CO+H         9.46E+13  0.0   -515.0   ! MILLER 1992
   CH+C2H2=C3H2+H          1.00E+14  0.0      0.0   ! MILLER 1992
   CH+CH2=C2H2+H           4.00E+13  0.0      0.0   ! MILLER 1992
   CH+CH3=C2H3+H           3.00E+13  0.0      0.0   ! MILLER 1992
   CH+CH4=C2H4+H           6.00E+13  0.0      0.0   ! MILLER 1992
   C+O2=CO+O               2.00E+13  0.0      0.0   ! MILLER 1992
   C+OH=CO+H               5.00E+13  0.0      0.0   ! MILLER 1992
   C+CH3=C2H2+H            5.00E+13  0.0      0.0   ! MILLER 1992
   C+CH2=C2H+H             5.00E+13  0.0      0.0   ! MILLER 1992
   CH2O+OH=HCO+H2O         3.43E+09  1.18  -447.0   ! MILLER 1992
   CH2O+H=HCO+H2           2.19E+08  1.77  3000.0   ! MILLER 1992
   CH2O+M=HCO+H+M          3.31E+16  0.0   81000.0  ! MILLER 1992
   CH2O+O=HCO+OH           1.80E+13  0.0   3080.0   ! MILLER 1992
   HCO+O2=HO2+CO           7.58E+12  0.0    410.0   ! TIMONEN 1988
   HCO+M=H+CO+M            1.86E+17  -1.0 17000.0   ! TIMONEN 1987
   H2O/5.0/ H2/1.87/ CO2/3.0/ CO/1.87/ CH4/2.81/
   HCO+OH=H2O+CO           1.00E+14  0.0     0.0    ! MILLER 1992
   HCO+H=CO+H2             1.19E+13  0.25    0.0    ! MILLER 1992
   HCO+O=CO+OH   	   3.00E+13  0.0     0.0    ! MILLER 1992
   HCO+O=CO2+H             3.00E+13  0.0     0.0    ! MILLER 1992
   CO+OH=CO2+H             9.42E+03  2.25 -2351.0   ! (G)
   CO+O+M=CO2+M            6.17E+14  0.0   3000.0   ! MILLER 1992
   CO+O2=CO2+O             2.53E+12  0.0  47688.0   ! MILLER 1992
   CO+HO2=CO2+OH           5.80E+13  0.0  22934.0   ! MILLER 1992
   C2H6+CH3=C2H5+CH4       5.50E-01  4.0   8300.0   ! MILLER 1992
   C2H6+H=C2H5+H2          5.40E+02  3.5   5210.0   ! MILLER 1992
   C2H6+O=C2H5+OH          3.00E+07  2.0   5115.0   ! MILLER 1992
   C2H6+OH=C2H5+H2O        7.23E+06  2.0    864.0   ! BAULCH 1992
   C2H5+H=C2H4+H2          1.25E+14  0.0   8000.0   ! MARINOV 1995
   C2H5+H=CH3+CH3          3.00E+13  0.0      0.0   ! WARNATZ 1984
   C2H5+H=C2H6             1.00E+14  0.0      0.0   ! MARINOV 1996
   C2H5+OH=C2H4+H2O        4.00E+13  0.0      0.0   ! MARINOV 1995
   C2H5+O=CH3+CH2O         1.00E+14  0.0      0.0   ! HERRON 1988
   C2H5+HO2=CH3+CH2O+OH    3.00E+13  0.0      0.0   ! MARINOV 1995
   C2H5+O2=C2H4+HO2        3.00E+20 -2.86  6760.0   ! MARINOV 1995
   C2H4+H=C2H3+H2    	   3.36E-07  6.0   1692.0   ! DAGAUT 1990
   C2H4+OH=C2H3+H2O        2.02E+13  0.0   5936.0   ! MILLER 1992
   C2H4+O=CH3+HCO   	   1.02E+07  1.88   179.0   ! BAULCH 1994
   C2H4+O=CH2HCO+H         3.39E+06  1.88   179.0   ! BAULCH 1994
   C2H4+CH3=C2H3+CH4       6.62E+00  3.7   9500.0   ! MARINOV 1995
   C2H4+H (+M)=C2H5(+M)    1.08E+12  0.454 1822.0   ! FENG  1993
   LOW / 1.112E+34  -5.0    4448.0 /	            !  (H)
   TROE / 1.0   1.0E-15   95.0  200.0 /
   H2O /5.0/ H2/2.0/ CO2/3.0/ CO/2.0/
   C2H4(+M)=C2H2+H2(+M)    1.8E+13   0.0    76000.  ! TOWELL 1961 
   LOW / 1.5E+15  0.0  55443. /                     ! KIEFER 1983
   C2H4(+M)=C2H3+H(+M)     2.00E+16  0.0   110000.  ! DEAN  1985
   LOW / 1.4E+15  0.0  81833. /                     ! KIEFER 1983
   C2H3+H=C2H2+H2          4.00E+13  0.0      0.0   ! MILLER 1992
   C2H3+O=CH2CO+H          3.00E+13  0.0      0.0   ! MILLER 1992
   C2H3+O2=CH2O+HCO        1.70E+29 -5.312  6500.   ! MARINOV 1998
   C2H3+O2=CH2HCO+O        3.50E+14 -0.611  5260.   ! MARINOV 1998
   C2H3+O2=C2H2+HO2        2.12E-06  6.0   9484.0   ! CFM/NMM 1996
   C2H3+OH=C2H2+H2O        2.00E+13  0.0      0.0   ! MILLER 1992
   C2H3+C2H=C2H2+C2H2      3.00E+13  0.0      0.0   ! MILLER 1992
   C2H3+CH=CH2+C2H2        5.00E+13  0.0      0.0   ! MILLER 1992
   C2H3+CH3=AC3H5+H        4.73E+02  3.7   5677.0   ! (I)
   C2H3+CH3=C3H6           4.46E+56 -13.0 13865.0   ! (I)
   C2H3+CH3=C2H2+CH4       2.00E+13  0.0      0.0   ! FAHR  1991
   C2H3+C2H2=CH2CHCCH+H    2.00E+12  0.0   5000.0   ! MILLER 1992
   C2H3+C2H4=CH2CHCHCH2+H  5.00E+11  0.0   7304.0   ! TSANG 1986
   C2H3+C2H3=CH2CHCCH2+H   7.00E+13  0.0      0.0   ! FAHR  1991
   C2H3+C2H3=C2H4+C2H2     1.45E+13  0.0      0.0   ! FAHR  1991
   C2H2+OH=C2H+H2O         3.37E+07  2.0  14000.0   ! MILLER 1992
   C2H2+OH=HCCOH+H         5.04E+05  2.3  13500.0   ! MILLER 1992
   C2H2+OH=CH2CO+H         2.18E-04  4.5  -1000.0   ! MILLER 1992
   DUP
   C2H2+OH=CH2CO+H         2.00E+11  0.0      0.0   ! VANDOOREN 1977
   DUP
   C2H2+OH=CH3+CO          4.83E-04  4.0  -2000.0   ! MILLER 1992
   HCCOH+H=CH2CO+H         1.00E+13  0.0      0.0   ! MILLER 1992
   C2H2+O=CH2+CO           6.12E+06  2.0   1900.0   !   (J)
   C2H2+O=HCCO+H           1.43E+07  2.0   1900.0   !   (J)
   C2H2+O=C2H+OH           3.16E+15 -0.6   15000.0  ! MILLER 1992
   C2H2+CH3=C2H+CH4        1.81E+11  0.0   17289.0  ! TSANG  1986
   C2H2+O2=HCCO+OH         4.00E+07  1.5   30100.   ! MARINOV 1998
   C2H2+M=C2H+H+M          4.20E+16  0.0  107000.0  ! MILLER 1992
   C2H2+H (+M)=C2H3(+M)    3.11E+11  0.58   2589.0  ! KNYAZEV 1995
   LOW / 2.25E+40  -7.269   6577.0 /	            !   (K)
   TROE /1.0 1.0E-15  675.0 1.0E+15 /
   H2O /5.0/ H2/2.0/ CO2/3.0/ CO/2.0/
   CH3HCO+OH=CH3CO+H2O     5.37E+10  0.73  -1110.0  ! MARINOV 1995
   CH3HCO+H=CH3CO+H2       4.09E+09  1.16   2400.0  ! MARINOV 1995
   CH3HCO+O=CH3CO+OH       5.89E+12  0.0    1810.0  ! MARINOV 1995
   CH3HCO+HO2=CH3CO+H2O2   1.70E+12  0.0   10700.0  ! MARINOV 1995
   CH3HCO+O2=CH3CO+HO2     2.00E+13  0.5   42200.0  ! MARINOV 1995
   CH3HCO+CH3=CH3CO+CH4    2.00E-06  5.64   2464.0  ! MARINOV 1996
   CH2HCO+H=CH2CO+H2       4.00E+13  0.0       0.0  ! MARINOV 1996
   CH2HCO+O=CH2O+HCO       1.00E+14  0.0       0.0  ! MARINOV 1996
   CH2HCO+OH=CH2CO+H2O     3.00E+13  0.0       0.0  ! MARINOV 1996
   CH2HCO+O2=CH2O+CO+OH    3.00E+10  0.0       0.0  ! BAULCH  1992
   CH2HCO+CH3=>C2H5+CO+H   4.90E+14 -0.50      0.0  !   (L)
   CH2HCO=CH2CO+H          3.95E+38 -7.649 45115.0  ! MARINOV 1995
   CHOCHO(+M)=CH2O+CO(+M)  4.27E+12  0.0   50600.0  ! MARINOV 1995
   LOW /  8.91E+16    0.0    49200.0 /              ! MARINOV 1995
   CHOCHO=CO+CO+H2         4.07E+42 -8.5   69278.0  !   (M)
   CHOCHO+OH=HCO+CO+H2O    1.00E+13  0.0       0.0  ! MARINOV 1995
   CHOCHO+O=HCO+CO+OH      7.24E+12  0.0    1970.0  ! MARINOV 1995
   CHOCHO+H=CH2O+HCO       1.00E+12  0.0       0.0  ! MARINOV 1995
   CHOCHO+HO2=HCO+CO+H2O2  1.70E+12  0.0   10700.0  ! MARINOV 1995
   CHOCHO+CH3=HCO+CO+CH4   1.74E+12  0.0    8440.0  ! MARINOV 1995
   CHOCHO+O2=HCO+CO+HO2    1.00E+14  0.0   37000.0  ! MARINOV 1995
   CH3CO(+M)=CH3+CO(+M)    3.00E+12  0.0   16722.0  ! WARNATZ 1984  
   LOW / 1.20E+15    0.0     12518.0 /              ! WARNATZ 1984
   CH2CO+O=CO2+CH2         1.75E+12  0.0    1350.0  ! MARINOV 1995
   CH2CO+H=CH3+CO          7.00E+12  0.0    3011.0  ! WARNATZ 1984
   CH2CO+H=HCCO+H2         2.00E+14  0.0    8000.0  !   (N)
   CH2CO+O=HCCO+OH         1.00E+13  0.0    8000.0  ! MILLER 1992
   CH2CO+OH=HCCO+H2O       1.00E+13  0.0    2000.0  ! MILLER 1992 (O)
   CH2CO+OH=CH2OH+CO       3.73E+12  0.0   -1013.0  ! BROWN 1989
   CH2CO(+M)=CH2+CO(+M)    3.00E+14  0.0   70980.0  ! MILLER 1992   
   LOW /  3.60E+15    0.0    59270.0 /              ! MILLER 1992
   C2H+H2=C2H2+H  	   4.09E+05  2.39    864.3  ! MILLER 1992
   C2H+O=CH+CO             5.00E+13  0.0       0.0  ! MILLER 1992
   C2H+OH=HCCO+H           2.00E+13  0.        0.0  ! MILLER 1992
   C2H+OH=C2+H2O           4.00E+07  2.0    8000.0  ! MILLER 1992
   C2H+O2=CO+CO+H          9.04E+12  0.0    -457.0  ! OPANSKY 1993
   C2H+C2H2=C4H2+H         9.64E+13  0.0       0.0  ! FARHAT 1993
   C2H+C2H4=CH2CHCCH+H     1.20E+13  0.0       0.0  ! TSANG 1986 
   HCCO+C2H2=H2CCCH+CO     1.00E+11  0.0    3000.0  ! MILLER 1992
   HCCO+H=CH2(S)+CO        1.00E+14  0.0       0.0  ! MILLER 1992
   HCCO+O=H+CO+CO          8.00E+13  0.0       0.0  ! PEETERS 1995
   HCCO+O=CH+CO2           2.95E+13  0.0    1113.0  ! PEETERS 1995
   HCCO+O2=HCO+CO+O        2.50E+08  1.0       0.0  ! MARINOV 1998
   HCCO+O2=CO2+HCO         2.40E+11  0.0    -854.0  ! MARINOV 1998
   HCCO+CH=C2H2+CO         5.00E+13  0.0       0.0  ! MILLER 1992
   HCCO+HCCO=C2H2+CO+CO    1.00E+13  0.0       0.0  ! MILLER 1992
   HCCO+OH=C2O+H2O         3.00E+13  0.0       0.0  ! MILLER 1992
   C2O+H=CH+CO             1.00E+13  0.0       0.0  ! MILLER 1992
   C2O+O=CO+CO             5.00E+13  0.0       0.0  ! MILLER 1992
   C2O+OH=CO+CO+H          2.00E+13  0.0       0.0  ! MILLER 1992
   C2O+O2=CO+CO+O          2.00E+13  0.0       0.0  ! MILLER 1992
   C2+H2=C2H+H             4.00E+05  2.4    1000.0  ! MILLER 1992
   C2+O2=CO+CO       	   5.00E+13  0.0       0.0  ! MILLER 1992
   C2+OH=C2O+H             5.00E+13  0.0       0.0  ! MILLER 1992
   C3H8(+M)=C2H5+CH3(+M)   7.90E+22 -1.8   88629.0  ! TSANG 1988
   LOW / 7.237E+27 -2.88 67448.0 /                  ! AL-ALAMI 1983
   TROE /1.0 1.0E-15 1500.0 1.0E+15/
   H2O/5.0/ CO2/3.0/ CO/2.0/ H2/2.0/
   C3H8+O2=IC3H7+HO2       4.00E+13  0.0   48610.0  ! TSANG 1988
   C3H8+O2=NC3H7+HO2       4.00E+13  0.0   51360.0  ! TSANG 1988
   C3H8+HO2=NC3H7+H2O2     4.76E+04  2.55  16492.0  ! TSANG 1988
   C3H8+HO2=IC3H7+H2O2     9.64E+03  2.6   13909.0  ! TSANG 1988
   C3H8+OH=NC3H7+H2O       3.16E+07  1.8     934.0  ! COHEN 1991
   C3H8+OH=IC3H7+H2O       7.08E+06  1.9    -159.0  ! COHEN 1991
   C3H8+O=NC3H7+OH         3.73E+06  2.4    5504.0  ! COHEN 1986
   C3H8+O=IC3H7+OH         5.48E+05  2.5    3139.0  ! COHEN 1986
   C3H8+H=IC3H7+H2         1.30E+06  2.4    4471.0  ! TSANG 1988
   C3H8+H=NC3H7+H2         1.33E+06  2.54   6756.0  ! TSANG 1988
   C3H8+CH3=NC3H7+CH4      9.04E-01  3.65   7153.0  ! TSANG 1988
   C3H8+CH3=IC3H7+CH4      1.51E+00  3.46   5480.0  ! TSANG 1988
   C3H8+C2H3=IC3H7+C2H4    1.00E+03  3.1    8830.0  ! TSANG 1988
   C3H8+C2H3=NC3H7+C2H4    6.00E+02  3.3   10500.0  ! TSANG 1988
   C3H8+C2H5=IC3H7+C2H6    1.51E+00  3.46   7470.0  ! TSANG 1988
   C3H8+C2H5=NC3H7+C2H6    9.03E-01  3.65   9140.0  ! TSANG 1988
   C3H8+AC3H5=C3H6+NC3H7   2.35E+02  3.3   19842.0  ! TSANG 1988
   C3H8+AC3H5=C3H6+IC3H7   7.83E+01  3.3   18169.0  ! TSANG 1988
   NC3H7(+M)=C2H4+CH3(+M)  1.23E+13  -0.1  30202.0  ! BENCSURA 1992
   LOW / 5.485E+49  -10.0  35766.0 /                ! BENCSURA 1992
   TROE / 2.17   1.0E-15   251.0   1185.0 /
   H2O /5.0/ H2/2.0/ CO2/3.0/ CO/2.0/
   NC3H7+O2=C3H6+HO2      3.58E+09   0.0   -3532.0  ! DAGAUT 1992
   IC3H7+O2=C3H6+HO2      6.10E+20   -2.86  7910.0  !   (P)
   C3H6+H(+M)=IC3H7(+M)   5.70E+09   1.16    874.0  ! SEAKINS 1993
   LOW / 1.64E+54   -11.1   9364.0 /                ! MARINOV 1996	      
   TROE / 1.0   1.0E-15   260.0   3000.0 /
   H2O /5.0/ H2/2.0/ CO2/3.0/ CO/2.0/
   IC3H7+H=C2H5+CH3       5.00E+13   0.0       0.0  ! TSANG 1988
   NC3H7+H=C2H5+CH3       1.00E+14   0.0       0.0  ! TSANG 1988
   C3H6=PC3H5+H           7.58E+14   0.0  101300.0  ! DAGAUT 1992
   C3H6=SC3H5+H           1.45E+15   0.0   98060.0  ! DAGAUT 1992
   C3H6=C2H2+CH4          2.50E+12   0.0   70000.0  ! HIDAKA 1992
   C3H6=AC3H4+H2          3.00E+13   0.0   80000.0  ! HIDAKA 1992
   C3H6+HO2=AC3H5+H2O2    9.64E+03   2.6   13910.0  ! TSANG 1991
   C3H6+OH+O2=CH3HCO+CH2O+OH 3.00E+10  0.0 -8280.0  ! DAGAUT 1992
   C3H6+OH=AC3H5+H2O      3.12E+06   2.0    -298.0  ! TSANG 1991
   C3H6+OH=SC3H5+H2O      1.11E+06   2.0    1451.0  ! TSANG 1991
   C3H6+OH=PC3H5+H2O      2.11E+06   2.0    2778.0  ! TSANG 1991
   C3H6+O=CH3CHCO+H+H     5.01E+07   1.76     76.0  ! TSANG 1991
   C3H6+O=C2H5+HCO        1.58E+07   1.76  -1216.0  ! TSANG 1991
   C3H6+O=AC3H5+OH        5.24E+11   0.7    5884.0  ! TSANG 1991
   C3H6+O=PC3H5+OH        1.20E+11   0.7    8959.0  ! TSANG 1991
   C3H6+O=SC3H5+OH        6.03E+10   0.7    7632.0  ! TSANG 1991
   C3H6+H=C2H4+CH3        7.23E+12   0.0    1302.0  ! TSANG 1991
   C3H6+H=AC3H5+H2        1.73E+05   2.5    2492.0  ! TSANG 1991
   C3H6+H=SC3H5+H2        4.09E+05   2.5    9794.0  ! TSANG 1991
   C3H6+H=PC3H5+H2        8.04E+05   2.5   12284.0  ! TSANG 1991
   C3H6+O2=PC3H5+HO2      2.00E+13   0.0   47600.0  ! DAGAUT 1992
   C3H6+O2=SC3H5+HO2      2.00E+13   0.0   44000.0  ! DAGAUT 1992
   C3H6+O2=AC3H5+HO2      2.29E+12   0.0   39200.0  ! DAGAUT 1992
   C3H6+CH3=AC3H5+CH4     2.22E+00   3.5    5675.0  ! TSANG 1991
   C3H6+CH3=SC3H5+CH4     8.43E-01   3.5   11656.0  ! TSANG 1991
   C3H6+CH3=PC3H5+CH4     1.35E+00   3.5   12848.0  ! TSANG 1991
   C3H6+HCO=AC3H5+CH2O    1.08E+07   1.9   17010.0  ! TSANG 1991
   CH3CHCO+OH=CH2CHCO+H2O 4.00E+06   2.0      0.0   !   (Q)
   CH3CHCO+O=CH2CHCO+OH   7.60E+08   1.5   8500.0   !   (Q)
   CH3CHCO+H=CH2CHCO+H2   2.00E+05   2.5   2500.0   !   (Q)
   CH3CHCO+H=C2H5+CO      2.00E+13   0.0   2000.0   !   (R)
   CH3CHCO+O=CH3+HCO+CO   3.00E+07   2.0      0.0   !   (S)
   CH2CHCHO+OH=CH2CHCO+H2O 1.00E+13  0.0      0.0   !   (T)
   CH2CHCHO+O=CH2CHCO+OH  7.24E+12   0.0   1970.0   !   (T)
   CH2CHCHO+O=CH2CO+HCO+H 5.01E+07   1.76    76.0   !   (S)
   CH2CHCHO+H=CH2CHCO+H2  3.98E+13   0.0   4200.0   !   (T)
   CH2CHCHO+H=C2H4+HCO    2.00E+13   0.0   3500.0   !   (R)
   CH2CHCHO+O2=CH2CHCO+HO2 3.00E+13  0.0  36000.0   !   (U)
   CH2CHCO=C2H3+CO        1.00E+14   0.0  34000.0   !   (V)
   CH2CHCO+O=C2H3+CO2     1.00E+14   0.0      0.0   !   (W)
   AC3H5+O2=CH2CHCHO+OH   1.82E+13  -0.41 22859.0   ! BOZZELLI 1993
   AC3H5+O2=AC3H4+HO2     4.99E+15  -1.4  22428.0   ! BOZZELLI 1993
   AC3H5+O2=CH2HCO+CH2O   1.06E+10  0.34  12838.0   ! BOZZELLI 1993
   AC3H5+O2=C2H2+CH2O+OH  2.78E+25  -4.8  15468.0   ! BOZZELLI 1993
   AC3H5+HO2=CH2CHCHO+H+OH 1.00E+13 0.0       0.0   ! TSANG 1991
   AC3H5+OH=AC3H4+H2O     1.00E+13  0.0       0.0   ! TSANG 1991
   AC3H5+H=AC3H4+H2       5.00E+13  0.0       0.0   ! TSANG 1991 (X)
   AC3H5+H=C3H6    	  1.88E+26  -3.6   5468.0   !   (Y)
   AC3H5+O=CH2CHCHO+H     1.81E+14  0.0       0.0   ! SLAGLE 1992
   AC3H5+CH3=AC3H4+CH4    3.02E+12  -0.32  -131.0   ! TSANG 1991
   AC3H5+C2H2=C-C5H6+H    2.95E+32  -5.83 25733.0   !   (Y)
   AC3H5+CH3=C4H8-1       1.76E+50  -11.0 18600.0   !   (Y)
   AC3H5+C2H3=C-C5H6+H+H  1.59E+65  -14.0 61265.0   !   (Y)
   PC3H5+O2=CH3HCO+HCO    1.09E+23  -3.29  3892.0   !   (Z)
   PC3H5+O2=CH3CHCO+H+O   1.60E+15  -0.78  3135.0   !   (Z)
   PC3H5+O=CH3CHCO+H      1.00E+14   0.0      0.0   !   (AA)
   PC3H5+H=PC3H4+H2       2.00E+13   0.0      0.0   !   (AA)
   PC3H5+OH=PC3H4+H2O     1.00E+13   0.0      0.0   !   (AA)
   PC3H5+H=AC3H5+H        1.00E+14   0.0      0.0   ! MARINOV 1996
   SC3H5+H=AC3H5+H        1.00E+14   0.0      0.0   ! MARINOV 1996
   SC3H5+O2=CH3CO+CH2O    1.09E+22  -3.29  3892.0   !   (Z)
   SC3H5+O=CH2CO+CH3      1.00E+14   0.0      0.0   !   (AA)
   SC3H5+H=PC3H4+H2       4.00E+13   0.0      0.0   !   (AA)
   SC3H5+OH=PC3H4+H2O     2.00E+13   0.0      0.0   !   (AA)
   AC3H4+H=H2CCCH+H2      2.00E+07   2.0   5000.0   ! MARINOV 1998
   AC3H4+O=C2H4+CO        1.34E+07   1.88   179.0   !   (BB)
   AC3H4+OH=H2CCCH+H2O    1.00E+07   2.0   1000.0   ! MARINOV 1998
   AC3H4+CH3=H2CCCH+CH4   1.50E+00   3.5   5600.0   ! MARINOV 1998
   AC3H4=PC3H4            1.48E+13   0.0   60401.   ! LIFSHITZ 1975
   PC3H4+H=H2CCCH+H2      2.00E+07   2.0   5000.0   ! MARINOV 1998
   PC3H4+O=C2H4+CO        1.50E+13   0.0   2102.0   ! WARNATZ84 (CC)
   PC3H4+OH=H2CCCH+H2O    1.00E+07   2.0   1000.0   ! MARINOV 1998
   PC3H4+CH3=H2CCCH+CH4   1.50E+00   3.5   5600.0   ! MARINOV 1998
   PC3H4+H=CH3+C2H2       5.12E+10   1.0   2060.0   ! MARINOV 1998 
   PC3H4+H(+M)=SC3H5(+M)  6.50E+12   0.0   2000.0   ! WAGNER 1972
   LOW / 8.45E+39  -7.27    6577.0 /                !  (DD)
   AC3H4+H(+M)=AC3H5(+M)  1.20E+11   0.69  3007.0   ! TSANG 1992	
   LOW / 5.56E+33   -5.0    4448.0 /		    !  (EE)
   AC3H4+H(+M)=SC3H5(+M)  8.49E+12   0.0   2000.0   ! WAGNER 1972
   LOW / 1.11E+34   -5.0    4448.0 /	            !  (EE)
   H2CCCH+O2=CH2CO+HCO    3.00E+10 0.0     2868.0   ! MILLER 1992
   H2CCCH+O=CH2O+C2H      2.00E+13 0.0        0.0   ! MILLER 1992
   H2CCCH+H=C3H2+H2       5.00E+13 0.0     3000.0   ! MILLER 1992
   H2CCCH+OH=C3H2+H2O     2.00E+13 0.0        0.0   ! MILLER 1992
   H2CCCH+C2H3=C-C5H5+H   9.63E+40 -7.8   28820.0   ! MARINOV 1996 
   H2CCCH+CH3=CH3CHCCH2   5.00E+12 0.0        0.0   ! WU 1987
   H2CCCH+CH3=CH3CH2CCH   5.00E+12 0.0        0.0   ! WU 1987
   H2CCCH+CH=HCCHCCH+H    7.00E+13 0.0        0.0   ! MILLER 1992
   H2CCCH+CH=H2CCCCH+H    7.00E+13 0.0        0.0   ! MILLER 1992
   H2CCCH+H(+M)=AC3H4(+M) 1.66E+15 -0.37      0.0   !  (FF)
   LOW / 3.36E+45 -8.52  6293.0  /		    ! KIEFER 1995 (GG)
   H2O/5.0/ H2/2.0/ CO2/3.0/ CO/2.0/ O2/2.0/ C2H2/2.0/
   H2CCCH+H(+M)=PC3H4(+M) 1.66E+15 -0.37      0.0   !  (FF)
   LOW / 8.78E+45 -8.9   7974.0 /	            ! KIEFER 1995 (GG)
   H2O /5.0/ H2/2.0/ CO2/3.0/ CO/2.0/ O2/2.0/ C2H2/2.0/
   H2CCCH+H2CCCH=C6H6     5.562E20  -2.535  1692.0  ! MARINOV 1998 
   H2CCCH+AC3H5=FULVENE+H+H 5.562E20 -2.535 1692.0  ! MARINOV 1998
   H2CCCH+H2CCCH=C6H5+H   2.00E12  0.0        0.0   ! MARINOV 1998
   C3H2+O2=HCCO+CO+H     5.00E+13  0.0        0.0   ! MILLER 1992
   C3H2+OH=C2H2+HCO      5.00E+13  0.0        0.0   ! MILLER 1992
   CHCHCHO+O2=HCO+CHOCHO 3.00E+12  0.0        0.0   !  (HH)
   CHCHCHO=C2H2+HCO      1.00E+14  0.0    33000.0   !  (II)
   CHCHCHO+H=CH2CHCO+H   1.00E+14  0.0        0.0   ! MARINOV 1996
   CHCHCHO+OH=HCCCHO+H2O 1.00E+13  0.0        0.0   !  (AA)
   CHCHCHO+H=HCCCHO+H2   2.00E+13  0.0        0.0   !  (AA)
   HCCCHO+H=C2H2+HCO     1.00E+14  0.0     3000.0   !  (JJ)
   HCCCHO+OH=HCCCO+H2O   1.00E+13  0.0        0.0   !  (T)
   HCCCHO+H=HCCCO+H2     4.00E+13  0.0     4200.0   !  (T)
   HCCCO+O2=HCO+CO+CO    1.40E+09  1.0        0.0   !  (KK)
   HCCCO+H=C2H2+CO       1.00E+14  0.0        0.0   !  (KK)
   C4H10=C2H5+C2H5       2.00E+16  0.0    81300.0   ! PITZ 1991
   C4H10=NC3H7+CH3       1.74E+17  0.0    85700.0   ! PITZ 1991
   C4H10=PC4H9+H         1.00E+14  0.0   100000.0   ! PITZ 1991
   C4H10=SC4H9+H         1.00E+14  0.0   100000.0   ! PITZ 1991
   C4H10+O2=PC4H9+HO2    2.50E+13  0.0    49000.0   ! PITZ 1991
   C4H10+O2=SC4H9+HO2    4.00E+13  0.0    47600.0   ! PITZ 1991
   C4H10+AC3H5=PC4H9+C3H6  7.94E+11 0.0   20500.0   ! PITZ 1991
   C4H10+AC3H5=SC4H9+C3H6  3.16E+11 0.0   16400.0   ! PITZ 1991
   C4H10+CH3=PC4H9+CH4   5.00E+11  0.0    13600.0   ! MARINOV 1998
   C4H10+CH3=SC4H9+CH4   4.30E+11  0.0    10500.0   ! MARINOV 1998
   C4H10+H=PC4H9+H2      2.84E+05  2.54    6050.0   ! MARINOV 1998
   C4H10+H=SC4H9+H2      5.68E+05  2.40    3765.0   ! MARINOV 1998
   C4H10+OH=PC4H9+H2O    4.13E+07  1.73    753.0    ! PITZ 1991
   C4H10+OH=SC4H9+H2O    7.23E+07  1.64   -247.0    ! PITZ 1991
   C4H10+O=PC4H9+OH      1.13E+14  0.0     7850.0   ! PITZ 1991
   C4H10+O=SC4H9+OH      5.62E+13  0.0     5200.0   ! PITZ 1991
   C4H10+HO2=PC4H9+H2O2  1.70E+13  0.0    20460.0   ! PITZ 1991
   C4H10+HO2=SC4H9+H2O2  1.12E+13  0.0    17700.0   ! PITZ 1991
   SC4H9(+M)=C3H6+CH3(+M) 2.14E+12 0.65   30856.0   ! KNYAZEV 1996
   LOW /6.323E58 -12.85 35567./