ELEM E N O H AR HE
END

SPECIES
E
N2 N2(v1) N2(v2) N2(v3) N2(v4) N2(v5) N2(v6) N2(v7) N2(v8)
N2(A3Sigma) N2(B3Pi) N2(W3Delta) N2(Bp3Sigma) N2(ap1Sigma) N2(a1Pi) N2(w1Delta) N2(C3Pi) N2(E3Sigma) N2(app1Sigma) N2+
O2 O2(v1) O2(v2) O2(v3) O2(v4) O2(a1Delta) O2(b1Sigma) O2+
N N(2D) N(2P) 
O O(1D) O(1S)
O3 NO NO2 N2O NO3 N2O3 N2O4	N2O5
H2 H2(v1) H2(v2) H2(v3) H H2+
OH HO2 H2O2 H2O
AR HE    
END


REACTIONS                      

!*************************************************************************************************************************************
! H2-O2 chemistry mechanism (A.A. Konnov, Comb. Flame 152 (2008) 507-528), units: cm3/mol/s, cal, K
!*************************************************************************************************************************************

H + H + M  <=> H2 + M					         7.00E+17  -1.0    0
							H2/0/ N2/0/ H/0/ H2O/14.3/ O2/1/ AR/1/  
H + H + H2 <=> H2 + H2						     1.00E+17  -0.6    0
H + H + N2 <=> H2 + N2							 5.40E+18  -1.3    0
H + H + H  <=> H2 + H							 3.20E+15   0      0
O + O + M  <=> O2 + M							 1.00E+17  -1.0    0
							O/28.8/ O2/8/ NO/2/ N/2/ N2/2/ H2O/5/ H2/1/ AR/1/
O + H + M  <=> OH + M							 6.75E+18  -1.0    0
							H2O/5/ N2/1/ O2/1/ H2/1/ AR/1/
H2O + M    <=> H + OH + M						 6.06E+27  -3.312  120770
							H2O/0/ H2/3/ N2/2/ O2/1.5/ AR/1/
H2O + H2O  <=> H + OH + H2O						 1.00E+26  -2.44   120160
H + O2 (+M) <=> HO2 (+M)						 4.66E+12   0.44   0
							LOW /5.70E+19  -1.4   0/
							TROE /0.5 100000 10/		 
							AR/0/ H2O/0/ O2/0/ H2/1.5/ N2/1/ HE/0.57/
H + O2 (+AR) <=> HO2 (+AR)						 4.66E+12   0.44   0
							LOW /7.43E+18  -1.2   0/
							TROE /0.5 100000 10/
H + O2 (+O2) <=> HO2 (+O2)						 4.66E+12   0.44   0
							LOW /5.69E+18  -1.094 0/
							TROE /0.5 100000 10/
H + O2 (+H2O) <=> HO2 (+H2O)					 9.06E+12   0.2    0
							LOW /3.67E+19  -1.0   0/
							TROE /0.2 100000 10/
OH + OH (+M) <=> H2O2 (+M)						 1.00E+14  -0.37   0
							LOW /2.38E+19  -0.8   0/
							TROE /0.5 100000 10/
							H2O/0/
OH + OH (+H2O) <=> H2O2 (+H2O)					 1.00E+14  -0.37   0
							LOW /1.45E+18   0     0/
							TROE /0.5 100000 10/
O + H2 <=> OH + H								 5.06E+04   2.67   6290
H + O2 <=> OH + O								 2.06E+14  -0.097  15022
H2 + OH <=> H2O + H								 2.14E+08   1.52   3450
OH + OH <=> H2O + O								 3.34E+04   2.42  -1930
HO2 + O <=> OH + O2								 1.63E+13   0     -445
H + HO2 <=> OH + OH								 1.90E+14   0      875
H + HO2 <=> H2O + O								 1.45E+12   0      0
H + HO2 <=> H2 + O2								 1.05E+14   0      2047
H2 + O2 <=> OH + OH								 2.04E+12   0.44   69155
HO2 + OH <=> H2O + O2							 2.89E+13   0     -500
DUP
HO2 + OH <=> H2O + O2							 9.27E+15   0      17500
DUP
HO2 + HO2 <=> H2O2 + O2							 1.03E+14   0      11040
DUP
HO2 + HO2 <=> H2O2 + O2							 1.94E+11   0     -1409
DUP
HO2 + HO2 + M <=> H2O2 + O2 + M					 6.84E+14   0     -1950
H2O2 + H <=> HO2 + H2							 1.70E+12   0      3755
H2O2 + H <=> H2O + OH							 1.00E+13   0      3575
H2O2 + O <=> HO2 + OH							 9.55E+6    2      3970
H2O2 + OH <=> HO2 + H2O							 2.00E+12   0      427
DUP
H2O2 + OH <=> HO2 + H2O							 1.70E+18   0      29400
DUP
 
END

