ELEM E N O H AR HE
END

SPECIES
E
N2 N2(v1) N2(v2) N2(v3) N2(v4) N2(v5) N2(v6) N2(v7) N2(v8)
N2(A3Sigma) N2(B3Pi) N2(W3Delta) N2(Bp3Sigma) N2(ap1Sigma) N2(a1Pi) N2(w1Delta) N2(C3Pi) N2(E3Sigma) N2(app1Sigma) N2+
O2 O2(v1) O2(v2) O2(v3) O2(v4) O2(a1Delta) O2(b1Sigma) O2+
N N(2D) N(2P) 
O O(1D) O(1S)
O3 NO NO2 N2O NO3 N2O3 N2O4 N2O5
H2 H2(v1) H2(v2) H2(v3) H H2+
OH HO2 H2O2 H2O
AR HE    
END


REACTIONS KELVIN MOLECULES


!*************************************************************************************************************************************
! H2-O2 chemistry mechanism (N.A. Popov, Plasma Phys. Rep., 34 (2008) 376-391), units: cm3/s, K
!*************************************************************************************************************************************

H  +  O2  +  H2  <=>  HO2  +  H2					5.8000E-30	-0.8	0
H  +  O2  +  N2  <=>  HO2  +  N2					3.7000E-30	-0.8	0
H  +  O2  +  O2  <=>  HO2  +  O2					2.3200E-30	-0.8	0
H  +  O2  +  H2O  <=>  HO2  +  H2O					3.7700E-29	-0.8	0
H  +  O2  +  AR  <=>  HO2  +  AR					2.2040E-29	-0.8	0
OH  +  H2  <=>  H +  H2O   							1.7000E-16	1.6		1660
O  +  H2  <=>  H +  OH    							8.5000E-20	2.67	3160
O  +  OH  <=>  H +  O2    							2.4000E-11	0		-109.5
H2  +  O2  <=>  OH +  OH   							1.0000E-09	0		24180
O  +  HO2  <=>  OH +  O2   							3.0000E-11	0		-200
OH  +  HO2  <=>  H2O +  O2    						4.8000E-11	0		-250
H  +  HO2  <=>  H2O +  O   							5.0000E-11	0		866
H  +  HO2  <=>  OH +  OH   							2.8000E-10	0		440
OH  +  OH  <=>  H2O +  O   							2.5000E-15	1.14	50
H  +  OH  +  H2  <=>  H2O  +  H2					6.1000E-26	-2		0
H  +  OH  +  N2  <=>  H2O  +  N2					3.8900E-26	-2		0
H  +  OH  +  O2  <=>  H2O  +  O2					2.4400E-26	-2		0
H  +  OH  +  H2O  <=>  H2O  +  H2O					3.9650E-25	-2		0
H  +  OH  +  AR  <=>  H2O  +  AR					2.3180E-25	-2		0
H  +  H  +  H2  <=>  H2  +  H2						5.1400E-30	-1		0
H  +  H  +  N2  <=>  H2  +  N2						3.2800E-30	-1		0
H  +  H  +  O2  <=>  H2  +  O2						2.0560E-30	-1		0
H  +  H  +  H2O  <=>  H2  +  H2O					3.3410E-29	-1		0
H  +  H  +  AR  <=>  H2  +  AR						1.9530E-29	-1		0
O  +  O  +  H2  <=>  O2  +  H2						2.3700E-31	-0.63	0
O  +  O  +  N2  <=>  O2  +  N2						1.5120E-31	-0.63	0
O  +  O  +  O2  <=>  O2  +  O2						9.4800E-32	-0.63	0
O  +  O  +  H2O  <=>  O2  +  H2O					1.5400E-30	-0.63	0
O  +  O  +  AR  <=>  O2  +  AR						9.0060E-31	-0.63	0
H  +  O  +  H2  <=>  OH  +  H2						1.3000E-29	-1		0
H  +  O  +  N2  <=>  OH  +  N2						8.2900E-30	-1		0
H  +  O  +  O2  <=>  OH  +  O2						5.2000E-30	-1		0
H  +  O  +  H2O  <=>  OH  +  H2O					8.4500E-29	-1		0
H  +  O  +  AR  <=>  OH  +  AR						4.9400E-29	-1		0
H  +  HO2  <=>  H2 +  O2   							1.1000E-10	0		1070
HO2  +  H2  <=>  OH +  H2O    						1.0800E-12	0		9400
HO2  +  HO2  <=>  H2O2 +  O2   						3.1000E-12	0		775
OH  +  OH  +  H2  <=>  H2O2  +  H2					6.1000E-29	-0.76	0
OH  +  OH  +  N2  <=>  H2O2  +  N2					3.8900E-29	-0.76	0
OH  +  OH  +  O2  <=>  H2O2  +  O2					2.4400E-29	-0.76	0
OH  +  OH  +  H2O  <=>  H2O2  +  H2O				3.9650E-28	-0.76	0
OH  +  OH  +  AR  <=>  H2O2  +  AR					2.3180E-28	-0.76	0
OH  +  H2O2  <=>  HO2 +  H2O   						1.3000E-11	0		670
H  +  H2O2  <=>  HO2 +  H2    						2.8000E-12	0		1890
H  +  H2O2  <=>  OH +  H2O    						1.7000E-11	0		1800
O  +  H2O2  <=>  OH +  HO2    						5.5000E-13	0		2000

END
