ELEM  E H O N AR HE
END

SPECIES  
E
N2 N2(v1) N2(v2) N2(v3) N2(v4) N2(v5) N2(v6) N2(v7) N2(v8)
N2(A3Sigma) N2(B3Pi) N2(W3Delta) N2(Bp3Sigma) N2(ap1Sigma) N2(a1Pi) N2(w1Delta) N2(C3Pi) N2(E3Sigma) N2(app1Sigma) N2+
O2 O2(v1) O2(v2) O2(v3) O2(v4) O2(a1Delta) O2(b1Sigma) O2+
N N(2D) N(2P) 
O O(1D) O(1S) O3 
NO NO2 N2O NO3 N2O3 N2O4 N2O5
H2 H2(v1) H2(v2) H2(v3) H H2+
OH HO2 H2O2 H2O 
AR HE 
END

REACTIONS     KJOULES/MOLE


! MECHANISM CO/O2/H2                                                          
! ******************************************                                 
! ****     01.   H2-O2 REACT. (NO HO2, H2O2)                                
! ******************************************                               
O2      +H       =OH      +O                  2.000E+14  0.0      70.300
H2      +O       =OH      +H                  5.060E+04  2.670    26.300
H2      +OH      =H2O     +H                  1.000E+08  1.600    13.800
OH      +OH      =H2O     +O                  1.500E+09  1.140     0.420
! ******************************************                                  
! ****     02.   RECOMBINATION REACTIONS                                     
! ******************************************                                
H       +H       +M       =H2      +M         1.800E+18 -1.000     0.0   
         H2/1.0/  H2O/6.5/   O2/0.35/  N2/0.5/
H       +OH      +M       =H2O     +M         2.200E+22 -2.000     0.0   
         H2/1.0/  H2O/6.5/   O2/0.35/  N2/0.5/
O       +O       +M       =O2      +M         2.900E+17 -1.000     0.0   
         H2/1.0/  H2O/6.5/   O2/0.35/  N2/0.5/
! ******************************************                               
! ****     03.   HO2 FORMATION/CONSUMPTION                                
! ******************************************                             
H       +O2      +M       =HO2     +M         2.300E+18 -0.800     0.0   
         H2/1.0/  H2O/6.5/   O2/0.35/  N2/0.5/
HO2     +H       =OH      +OH                 1.500E+14  0.0       4.200
HO2     +H       =H2      +O2                 2.500E+13  0.0       2.900
HO2     +H       =H2O     +O                  3.000E+13  0.0       7.200
HO2     +O       =OH      +O2                 1.800E+13  0.0      -1.700
HO2     +OH      =H2O     +O2                 6.000E+13  0.0       0.0   
! ******************************************                            
! ****     04.   H2O2 FORMATION/CONSUMPTION                            
! ******************************************                          
HO2     +HO2    =>H2O2    +O2                 2.500E+11  0.0      -5.200
OH      +OH      +M       =H2O2    +M         3.250E+22 -2.000     0.0   
         H2/1.0/  H2O/6.5/   O2/0.35/  N2/0.5/
H2O2    +H       =H2      +HO2                1.700E+12  0.0      15.700
H2O2    +H       =H2O     +OH                 1.000E+13  0.0      15.000
H2O2    +O       =OH      +HO2                2.800E+13  0.0      26.800
H2O2    +OH      =H2O     +HO2                5.400E+12  0.0       4.200

END                                                                             
